*
*|DSPF 1.3
*|DESIGN AOI22x1
*|DATE "Tue Oct 15 21:09:54 2024"
*|VENDOR "Synopsys"
*|PROGRAM "StarRC"
*|VERSION "V-2023.12-SP5"
*|DIVIDER .
*|DELIMITER :
**FORMAT SPF
*

** COMMENTS

** OPERATING_TEMPERATURE 25
** GLOBAL_TEMPERATURE 25
** 
** TCAD_GRD_FILE /home/gtcad/ctsai314/ITF_Modification/0_reference/3nm_FF_noBPR.nxtgrd
**   TCAD_TIME_STAMP Tue Sep 3 21:56:12 2024
**   TCADGRD_VERSION 89

.SUBCKT AOI22x1 A B C D VDD VSS Y

*|GROUND_NET 0

*LAYER_MAP

*0 SUBSTRATE
*1 m9    ITF=M9
*2 m8    ITF=M8
*3 m7    ITF=M7
*4 m6    ITF=M6
*5 m5    ITF=M5
*6 m4    ITF=M4
*7 m3    ITF=M3
*8 m2    ITF=M2
*9 m1    ITF=M1
*10 fpoly    ITF=Gate
*11 ngate    ITF=Gate
*12 pgate    ITF=Gate
*13 lisd    ITF=LISD
*14 lig    ITF=LIG
*15 sdt    ITF=SDT
*16 nsd    ITF=Active
*17 psd    ITF=Active
*18 pselect    ITF=Active
*19 well    ITF=Active
*20 sub    ITF=Active
*21 nselect    ITF=Active
*22 v8    ITF=V8
*23 v7    ITF=V7
*24 v6    ITF=V6
*25 v5    ITF=V5
*26 v4    ITF=V4
*27 v3    ITF=V3
*28 v2    ITF=V2
*29 v1    ITF=V1
*30 v0lig    ITF=V0LIG
*31 v0lisd    ITF=V0LISD
*32 well_pin    ITF=Active
*33 M1_pin    ITF=M1
*34 M2_pin    ITF=M2
*35 M3_pin    ITF=M3
*36 M4_pin    ITF=M4
*37 M5_pin    ITF=M5
*38 M6_pin    ITF=M6
*39 M7_pin    ITF=M7
*40 M8_pin    ITF=M8
*41 M9_pin    ITF=M9

*|NET VSS 5.06246e-05PF
*|P (VSS B 0 0.1050 0.0000) // $llx=0.0990 $lly=-0.0060 $urx=0.1110 $ury=0.0060 $lvl=33
*|I (MM3:SRC MM3 SRC B 0 0.1740 0.0300) // $llx=0.1740 $lly=0.0300 $urx=0.1740 $ury=0.0300 $lvl=16
*|I (MM0:BULK MM0 BULK B 0 0.0420 0.0300) // $llx=0.0420 $lly=0.0300 $urx=0.0420 $ury=0.0300 $lvl=20
*|I (MM0:SRC MM0 SRC B 0 0.0360 0.0300) // $llx=0.0360 $lly=0.0300 $urx=0.0360 $ury=0.0300 $lvl=16
*|I (MM0:BULK MM3 BULK B 0 0.1680 0.0300) // $llx=0.1680 $lly=0.0300 $urx=0.1680 $ury=0.0300 $lvl=20
*|I (MM0:BULK MM2 BULK B 0 0.1260 0.0300) // $llx=0.1260 $lly=0.0300 $urx=0.1260 $ury=0.0300 $lvl=20
*|I (MM0:BULK MM1 BULK B 0 0.0840 0.0300) // $llx=0.0840 $lly=0.0300 $urx=0.0840 $ury=0.0300 $lvl=20
*|S (VSS:5 0.0210 0.0150) // $llx=0.0110 $lly=0.0150 $urx=0.0310 $ury=0.0150 $lvl=15
*|S (VSS:6 0.1890 0.0150) // $llx=0.1790 $lly=0.0150 $urx=0.1990 $ury=0.0150 $lvl=15
*|S (VSS:7 0.0210 0.0000) // $llx=0.0150 $lly=-0.0060 $urx=0.0270 $ury=0.0060 $lvl=9
*|S (VSS:8 0.0630 0.0000) // $llx=0.0570 $lly=-0.0060 $urx=0.0690 $ury=0.0060 $lvl=9
*|S (VSS:9 0.0630 0.0000) // $llx=0.0570 $lly=-0.0060 $urx=0.0690 $ury=0.0060 $lvl=14
*|S (VSS:10 0.1050 0.0000) // $llx=0.0990 $lly=-0.0060 $urx=0.1110 $ury=0.0060 $lvl=14
*|S (VSS:11 0.1470 0.0000) // $llx=0.1410 $lly=-0.0060 $urx=0.1530 $ury=0.0060 $lvl=9
*|S (VSS:12 0.1470 0.0000) // $llx=0.1410 $lly=-0.0060 $urx=0.1530 $ury=0.0060 $lvl=14
*|S (VSS:13 0.1890 0.0000) // $llx=0.1830 $lly=-0.0060 $urx=0.1950 $ury=0.0060 $lvl=9
*|S (VSS:14 0.1890 0.0000) // $llx=0.1790 $lly=-0.0060 $urx=0.1990 $ury=0.0060 $lvl=13
*|S (VSS:15 0.0210 0.0450) // $llx=0.0110 $lly=0.0450 $urx=0.0310 $ury=0.0450 $lvl=15
*|S (VSS:16 0.1990 0.0600) // $llx=0.1990 $lly=-0.0100 $urx=0.2100 $ury=0.1300 $lvl=20
*|S (VSS:17 0.1890 0.0450) // $llx=0.1790 $lly=0.0450 $urx=0.1990 $ury=0.0450 $lvl=15
*|S (VSS:18 0.2400 0.0600) // $llx=0.2400 $lly=-0.0100 $urx=0.2400 $ury=0.1300 $lvl=20
*|S (VSS:19 -0.0090 0.0000) // $llx=-0.0090 $lly=-0.0060 $urx=-0.0090 $ury=0.0060 $lvl=9
*|S (VSS:20 0.0210 0.0000) // $llx=0.0110 $lly=-0.0060 $urx=0.0310 $ury=0.0060 $lvl=14
*|S (VSS:21 -0.0090 0.0000) // $llx=-0.0090 $lly=-0.0060 $urx=-0.0090 $ury=0.0060 $lvl=14
*|S (VSS:22 0.2190 0.0000) // $llx=0.2190 $lly=-0.0060 $urx=0.2190 $ury=0.0060 $lvl=14
*|S (VSS:23 0.0210 0.0300) // $llx=0.0110 $lly=0.0300 $urx=0.0310 $ury=0.0300 $lvl=15
*|S (VSS:24 0.1890 0.0300) // $llx=0.1790 $lly=0.0300 $urx=0.1990 $ury=0.0300 $lvl=15
*|S (VSS:25 0.2190 0.0000) // $llx=0.2190 $lly=-0.0060 $urx=0.2190 $ury=0.0060 $lvl=9
Cg1_1 MM0:BULK 0 7.57031e-18
Cg1_2 VSS:5 0 2.52249e-19
Cg1_3 VSS:6 0 1.78742e-19
Cg1_4 VSS:14 0 2.9822e-18
Cg1_5 VSS:15 0 5.17687e-19
Cg1_6 VSS:16 0 1.05618e-18
Cg1_7 VSS:17 0 5.17687e-19
Cg1_8 VSS:19 0 6.50811e-18
Cg1_9 VSS:20 0 5.92464e-19
R1_1 VSS VSS:8 14.5833 $l=0.0420 $w=0.0120 $lvl=9
R1_2 VSS VSS:11 14.5833 $l=0.0420 $w=0.0120 $lvl=9
R1_3 VSS VSS:10 63.5281 $a=0.00014400 $lvl=30
R1_4 MM3:SRC VSS:17 2.0 $l=0.0150 $w=0.0075 $lvl=16
R1_5 MM3:SRC VSS:6 2.0 $l=0.0150 $w=0.0075 $lvl=16
R1_6 MM3:SRC VSS:24 1.0 $l=0.0150 $w=0.0150 $lvl=16
R1_7 MM0:BULK VSS:16 0.356491 $l=0.1570 $w=0.1400 $lvl=20
R1_8 MM0:SRC VSS:15 2.0 $l=0.0150 $w=0.0075 $lvl=16
R1_9 MM0:SRC VSS:5 2.0 $l=0.0150 $w=0.0075 $lvl=16
R1_10 MM0:SRC VSS:23 1.0 $l=0.0150 $w=0.0150 $lvl=16
R1_11 VSS:5 VSS:23 2.73284 $l=0.0150 $w=0.0225 $lvl=16
R1_12 VSS:5 VSS:20 8.89907 $l=0.0150 $w=0.0200 $lvl=13
R1_13 VSS:6 VSS:24 2.73284 $l=0.0150 $w=0.0225 $lvl=16
R1_14 VSS:6 VSS:14 8.89907 $l=0.0150 $w=0.0200 $lvl=13
R1_15 VSS:7 VSS:19 10.4167 $l=0.0300 $w=0.0120 $lvl=9
R1_16 VSS:7 VSS:8 14.5833 $l=0.0420 $w=0.0120 $lvl=9
R1_17 VSS:7 VSS:20 31.764 $a=0.00028800 $lvl=31
R1_18 VSS:8 VSS:9 63.5281 $a=0.00014400 $lvl=30
R1_19 VSS:9 VSS:20 50.1851 $l=0.0420 $w=0.0120 $lvl=14
R1_20 VSS:9 VSS:10 55.4677 $l=0.0420 $w=0.0120 $lvl=14
R1_21 VSS:10 VSS:12 55.4677 $l=0.0420 $w=0.0120 $lvl=14
R1_22 VSS:11 VSS:12 63.5281 $a=0.00014400 $lvl=30
R1_23 VSS:11 VSS:13 14.5833 $l=0.0420 $w=0.0120 $lvl=9
R1_24 VSS:12 VSS:14 50.1851 $l=0.0420 $w=0.0120 $lvl=14
R1_25 VSS:13 VSS:14 31.764 $a=0.00028800 $lvl=31
R1_26 VSS:13 VSS:25 10.4167 $l=0.0300 $w=0.0120 $lvl=9
R1_27 VSS:14 VSS:22 34.3372 $l=0.0300 $w=0.0120 $lvl=14
R1_28 VSS:15 VSS:23 2.73284 $l=0.0150 $w=0.0225 $lvl=16
R1_29 VSS:16 VSS:18 0.253571 $l=0.0410 $w=0.1400 $lvl=20
R1_30 VSS:17 VSS:24 2.73284 $l=0.0150 $w=0.0225 $lvl=16
R1_31 VSS:20 VSS:21 34.3372 $l=0.0300 $w=0.0120 $lvl=14
R1_32 MM0:SRC MM0:BULK 0.01 $l=0.0060 $w=100.0000 $lvl=0

*|NET VDD 5.79143e-05PF
*|P (VDD B 0 0.2000 0.0720) // $llx=0.1990 $lly=0.0710 $urx=0.2010 $ury=0.0710 $lvl=19
*|P (VDD_1 B 0 0.1050 0.1200) // $llx=0.0990 $lly=0.1140 $urx=0.1110 $ury=0.1260 $lvl=33
*|I (MM7:BULK MM7 BULK B 0 0.1680 0.0900) // $llx=0.1680 $lly=0.0900 $urx=0.1680 $ury=0.0900 $lvl=19
*|I (MM6:BULK MM6 BULK B 0 0.1260 0.0900) // $llx=0.1260 $lly=0.0900 $urx=0.1260 $ury=0.0900 $lvl=19
*|I (MM5:BULK MM5 BULK B 0 0.0840 0.0900) // $llx=0.0840 $lly=0.0900 $urx=0.0840 $ury=0.0900 $lvl=19
*|I (MM5:SRC MM5 SRC B 0 0.0780 0.0900) // $llx=0.0780 $lly=0.0900 $urx=0.0780 $ury=0.0900 $lvl=17
*|I (MM4:BULK MM4 BULK B 0 0.0420 0.0900) // $llx=0.0420 $lly=0.0900 $urx=0.0420 $ury=0.0900 $lvl=19
*|I (MM4:SRC MM4 SRC B 0 0.0480 0.0900) // $llx=0.0480 $lly=0.0900 $urx=0.0480 $ury=0.0900 $lvl=17
*|S (VDD:8 0.0630 0.0750) // $llx=0.0530 $lly=0.0750 $urx=0.0730 $ury=0.0750 $lvl=15
*|S (VDD:9 0.0210 0.1200) // $llx=0.0150 $lly=0.1140 $urx=0.0270 $ury=0.1260 $lvl=9
*|S (VDD:10 0.0210 0.1200) // $llx=0.0150 $lly=0.1140 $urx=0.0270 $ury=0.1260 $lvl=14
*|S (VDD:11 0.0630 0.1200) // $llx=0.0570 $lly=0.1140 $urx=0.0690 $ury=0.1260 $lvl=9
*|S (VDD:12 0.0630 0.1200) // $llx=0.0530 $lly=0.1140 $urx=0.0730 $ury=0.1260 $lvl=13
*|S (VDD:13 0.1050 0.1200) // $llx=0.0990 $lly=0.1140 $urx=0.1110 $ury=0.1260 $lvl=14
*|S (VDD:14 0.1470 0.1200) // $llx=0.1410 $lly=0.1140 $urx=0.1530 $ury=0.1260 $lvl=9
*|S (VDD:15 0.1470 0.1200) // $llx=0.1410 $lly=0.1140 $urx=0.1530 $ury=0.1260 $lvl=14
*|S (VDD:16 0.1890 0.1200) // $llx=0.1830 $lly=0.1140 $urx=0.1950 $ury=0.1260 $lvl=9
*|S (VDD:17 0.1890 0.1200) // $llx=0.1830 $lly=0.1140 $urx=0.1950 $ury=0.1260 $lvl=14
*|S (VDD:18 0.0360 0.0900) // $llx=0.0360 $lly=0.0600 $urx=0.0360 $ury=0.1200 $lvl=18
*|S (VDD:19 0.0055 0.0900) // $llx=0.0000 $lly=0.0600 $urx=0.0110 $ury=0.1200 $lvl=18
*|S (VDD:20 0.0780 0.0900) // $llx=0.0780 $lly=0.0600 $urx=0.0780 $ury=0.1200 $lvl=18
*|S (VDD:21 0.0480 0.0600) // $llx=0.0480 $lly=0.0600 $urx=0.0480 $ury=0.1200 $lvl=19
*|S (VDD:22 0.0630 0.1050) // $llx=0.0530 $lly=0.1050 $urx=0.0730 $ury=0.1050 $lvl=15
*|S (VDD:23 0.1200 0.0900) // $llx=0.1200 $lly=0.0600 $urx=0.1200 $ury=0.1200 $lvl=18
*|S (VDD:24 0.0900 0.0600) // $llx=0.0900 $lly=0.0600 $urx=0.0900 $ury=0.1200 $lvl=19
*|S (VDD:25 0.1320 0.0900) // $llx=0.1320 $lly=0.0600 $urx=0.1320 $ury=0.1200 $lvl=18
*|S (VDD:26 -0.0090 0.1200) // $llx=-0.0090 $lly=0.1140 $urx=-0.0090 $ury=0.1260 $lvl=9
*|S (VDD:27 -0.0090 0.1200) // $llx=-0.0090 $lly=0.1140 $urx=-0.0090 $ury=0.1260 $lvl=14
*|S (VDD:28 0.2190 0.1200) // $llx=0.2190 $lly=0.1140 $urx=0.2190 $ury=0.1260 $lvl=14
*|S (VDD:29 0.0630 0.0900) // $llx=0.0530 $lly=0.0900 $urx=0.0730 $ury=0.0900 $lvl=15
*|S (VDD:30 0.2190 0.1200) // $llx=0.2190 $lly=0.1140 $urx=0.2190 $ury=0.1260 $lvl=9
C2_1 MM7:BULK MM0:BULK 1.1249e-20
C2_2 VDD:8 MM0:BULK 8.00299e-19
C2_3 VDD:12 MM0:BULK 1.31201e-18
C2_4 VDD:25 MM0:BULK 5.04145e-20
C2_5 VDD:26 MM0:BULK 1.19718e-18
C2_6 VDD:12 VSS:14 3.31165e-20
C2_7 VDD:19 VSS:14 1.11887e-19
C2_8 VDD:26 VSS:14 7.10305e-20
C2_9 VDD:12 VSS:19 3.37305e-20
C2_10 VDD:26 VSS:19 6.97569e-19
Cg2_11 VDD 0 1.11618e-18
Cg2_12 MM7:BULK 0 3.65736e-18
Cg2_13 VDD:8 0 2.54573e-19
Cg2_14 VDD:12 0 1.16818e-17
Cg2_15 VDD:18 0 2.58844e-19
Cg2_16 VDD:19 0 1.85446e-18
Cg2_17 VDD:20 0 3.10612e-19
Cg2_18 VDD:21 0 1.88742e-18
Cg2_19 VDD:22 0 6.1716e-19
Cg2_20 VDD:23 0 3.10612e-19
Cg2_21 VDD:24 0 1.85504e-18
Cg2_22 VDD:25 0 1.79785e-18
Cg2_23 VDD:26 0 6.83429e-18
R2_1 VDD MM7:BULK 0.436719 $l=0.0320 $w=0.0600 $lvl=19
R2_2 MM7:BULK VDD:25 0.6 $l=0.0360 $w=0.0600 $lvl=18
R2_3 MM6:BULK VDD:25 0.1 $l=0.0060 $w=0.0600 $lvl=18
R2_4 MM6:BULK VDD:23 0.1 $l=0.0060 $w=0.0600 $lvl=18
R2_5 MM5:BULK VDD:24 0.1 $l=0.0060 $w=0.0600 $lvl=18
R2_6 MM5:BULK VDD:20 0.1 $l=0.0060 $w=0.0600 $lvl=18
R2_7 MM5:SRC VDD:22 2.0 $l=0.0150 $w=0.0075 $lvl=17
R2_8 MM5:SRC VDD:8 2.0 $l=0.0150 $w=0.0075 $lvl=17
R2_9 MM5:SRC VDD:29 1.0 $l=0.0150 $w=0.0150 $lvl=17
R2_10 MM4:BULK VDD:21 0.1 $l=0.0060 $w=0.0600 $lvl=18
R2_11 MM4:BULK VDD:18 0.1 $l=0.0060 $w=0.0600 $lvl=18
R2_12 MM4:SRC VDD:22 2.0 $l=0.0150 $w=0.0075 $lvl=17
R2_13 MM4:SRC VDD:8 2.0 $l=0.0150 $w=0.0075 $lvl=17
R2_14 MM4:SRC VDD:29 1.0 $l=0.0150 $w=0.0150 $lvl=17
R2_15 VDD:8 VDD:29 1.87763 $l=0.0150 $w=0.0250 $lvl=17
R2_16 VDD:9 VDD:10 63.5281 $a=0.00014400 $lvl=30
R2_17 VDD:9 VDD:26 10.4167 $l=0.0300 $w=0.0120 $lvl=9
R2_18 VDD:9 VDD:11 14.5833 $l=0.0420 $w=0.0120 $lvl=9
R2_19 VDD:10 VDD:27 39.6198 $l=0.0300 $w=0.0120 $lvl=14
R2_20 VDD:10 VDD:12 50.1851 $l=0.0420 $w=0.0120 $lvl=14
R2_21 VDD:11 VDD_1 14.5833 $l=0.0420 $w=0.0120 $lvl=9
R2_22 VDD:11 VDD:12 31.764 $a=0.00028800 $lvl=31
R2_23 VDD:12 VDD:13 50.1851 $l=0.0420 $w=0.0120 $lvl=14
R2_24 VDD:12 VDD:22 8.89907 $l=0.0150 $w=0.0200 $lvl=13
R2_25 VDD:13 VDD:15 55.4677 $l=0.0420 $w=0.0120 $lvl=14
R2_26 VDD:13 VDD_1 63.5281 $a=0.00014400 $lvl=30
R2_27 VDD:14 VDD_1 14.5833 $l=0.0420 $w=0.0120 $lvl=9
R2_28 VDD:14 VDD:15 63.5281 $a=0.00014400 $lvl=30
R2_29 VDD:14 VDD:16 14.5833 $l=0.0420 $w=0.0120 $lvl=9
R2_30 VDD:15 VDD:17 55.4677 $l=0.0420 $w=0.0120 $lvl=14
R2_31 VDD:16 VDD:17 63.5281 $a=0.00014400 $lvl=30
R2_32 VDD:16 VDD:30 10.4167 $l=0.0300 $w=0.0120 $lvl=9
R2_33 VDD:17 VDD:28 39.6198 $l=0.0300 $w=0.0120 $lvl=14
R2_34 VDD:18 VDD:19 0.406667 $l=0.0305 $w=0.0750 $lvl=18
R2_35 VDD:20 VDD:21 0.5 $l=0.0300 $w=0.0600 $lvl=18
R2_36 VDD:22 VDD:29 1.87763 $l=0.0150 $w=0.0250 $lvl=17
R2_37 VDD:23 VDD:24 0.5 $l=0.0300 $w=0.0600 $lvl=18
R2_38 MM5:SRC VDD:20 0.01 $l=0.0000 $w=100.0000 $lvl=0

*|NET Y 2.80699e-05PF
*|P (Y B 0 0.1470 0.0600) // $llx=0.1460 $lly=0.0590 $urx=0.1480 $ury=0.0610 $lvl=33
*|I (MM2:DRN MM2 DRN B 0 0.1200 0.0300) // $llx=0.1200 $lly=0.0300 $urx=0.1200 $ury=0.0300 $lvl=16
*|I (MM1:DRN MM1 DRN B 0 0.0900 0.0300) // $llx=0.0900 $lly=0.0300 $urx=0.0900 $ury=0.0300 $lvl=16
*|I (MM7:DRN MM7 DRN B 0 0.1620 0.0900) // $llx=0.1620 $lly=0.0900 $urx=0.1620 $ury=0.0900 $lvl=17
*|I (MM6:DRN MM6 DRN B 0 0.1320 0.0900) // $llx=0.1320 $lly=0.0900 $urx=0.1320 $ury=0.0900 $lvl=17
*|S (Y:6 0.1050 0.0150) // $llx=0.0950 $lly=0.0150 $urx=0.1150 $ury=0.0150 $lvl=13
*|S (Y:7 0.1470 0.0750) // $llx=0.1370 $lly=0.0750 $urx=0.1570 $ury=0.0750 $lvl=13
*|S (Y:8 0.1050 0.0450) // $llx=0.0950 $lly=0.0450 $urx=0.1150 $ury=0.0450 $lvl=13
*|S (Y:9 0.1470 0.1050) // $llx=0.1370 $lly=0.1050 $urx=0.1570 $ury=0.1050 $lvl=13
*|S (Y:10 0.1050 0.0240) // $llx=0.0990 $lly=0.0180 $urx=0.1110 $ury=0.0300 $lvl=9
*|S (Y:11 0.1050 0.0240) // $llx=0.0950 $lly=0.0180 $urx=0.1150 $ury=0.0300 $lvl=13
*|S (Y:12 0.1470 0.0720) // $llx=0.1410 $lly=0.0660 $urx=0.1530 $ury=0.0780 $lvl=9
*|S (Y:13 0.1470 0.0720) // $llx=0.1370 $lly=0.0660 $urx=0.1570 $ury=0.0780 $lvl=13
*|S (Y:14 0.1470 0.0240) // $llx=0.1410 $lly=0.0180 $urx=0.1530 $ury=0.0300 $lvl=9
*|S (Y:15 0.1470 0.0780) // $llx=0.1410 $lly=0.0780 $urx=0.1530 $ury=0.0780 $lvl=9
*|S (Y:16 0.1470 0.0650) // $llx=0.1370 $lly=0.0650 $urx=0.1570 $ury=0.0650 $lvl=13
*|S (Y:17 0.1050 0.0300) // $llx=0.0950 $lly=0.0300 $urx=0.1150 $ury=0.0300 $lvl=15
*|S (Y:18 0.1470 0.0900) // $llx=0.1370 $lly=0.0900 $urx=0.1570 $ury=0.0900 $lvl=15
*|S (Y:19 0.0990 0.0240) // $llx=0.0990 $lly=0.0180 $urx=0.0990 $ury=0.0300 $lvl=9
C3_1 Y:6 MM0:BULK 8.29814e-19
C3_2 Y:8 MM0:BULK 8.25413e-19
C3_3 Y:14 MM0:BULK 9.68387e-20
C3_4 Y:15 MM0:BULK 1.79268e-19
C3_5 MM1:DRN VSS:14 6.72913e-19
C3_6 Y:14 VSS:14 2.19883e-19
C3_7 Y:14 VSS:16 2.93206e-20
C3_8 Y:14 VSS:19 5.60112e-18
C3_9 Y:15 VSS:19 7.82178e-20
Cg3_10 MM1:DRN 0 6.1716e-19
Cg3_11 MM6:DRN 0 6.21225e-19
Cg3_12 Y:6 0 2.04361e-19
Cg3_13 Y:7 0 2.64781e-19
Cg3_14 Y:8 0 2.446e-19
Cg3_15 Y:9 0 2.54729e-19
Cg3_16 Y:14 0 1.115e-18
Cg3_17 Y:15 0 9.44987e-19
R3_1 Y Y:12 4.16667 $l=0.0120 $w=0.0120 $lvl=9
R3_2 Y Y:14 12.5 $l=0.0360 $w=0.0120 $lvl=9
R3_3 MM2:DRN Y:8 2.0 $l=0.0150 $w=0.0075 $lvl=16
R3_4 MM2:DRN Y:17 1.42857 $l=0.0150 $w=0.0105 $lvl=16
R3_5 MM2:DRN Y:6 3.33333 $l=0.0150 $w=0.0045 $lvl=16
R3_6 MM2:DRN Y:11 2.0 $l=0.0150 $w=0.0075 $lvl=16
R3_7 MM1:DRN Y:8 2.0 $l=0.0150 $w=0.0075 $lvl=16
R3_8 MM1:DRN Y:17 1.42857 $l=0.0150 $w=0.0105 $lvl=16
R3_9 MM1:DRN Y:6 3.33333 $l=0.0150 $w=0.0045 $lvl=16
R3_10 MM1:DRN Y:11 2.0 $l=0.0150 $w=0.0075 $lvl=16
R3_11 MM7:DRN Y:9 2.0 $l=0.0150 $w=0.0075 $lvl=17
R3_12 MM7:DRN Y:7 2.0 $l=0.0150 $w=0.0075 $lvl=17
R3_13 MM7:DRN Y:18 1.0 $l=0.0150 $w=0.0150 $lvl=17
R3_14 MM6:DRN Y:9 2.0 $l=0.0150 $w=0.0075 $lvl=17
R3_15 MM6:DRN Y:7 2.0 $l=0.0150 $w=0.0075 $lvl=17
R3_16 MM6:DRN Y:18 1.0 $l=0.0150 $w=0.0150 $lvl=17
R3_17 Y:6 Y:11 1.34618 $l=0.0090 $w=0.0250 $lvl=16
R3_18 Y:7 Y:9 17.7981 $l=0.0300 $w=0.0200 $lvl=13
R3_19 Y:7 Y:13 1.77981 $l=0.0030 $w=0.0200 $lvl=13
R3_20 Y:7 Y:18 1.87763 $l=0.0150 $w=0.0250 $lvl=17
R3_21 Y:8 Y:11 12.4587 $l=0.0210 $w=0.0200 $lvl=13
R3_22 Y:8 Y:17 3.0 $l=0.0150 $w=0.0050 $lvl=16
R3_23 Y:9 Y:18 3.0 $l=0.0150 $w=0.0050 $lvl=17
R3_24 Y:10 Y:11 63.5281 $a=0.00014400 $lvl=31
R3_25 Y:10 Y:19 2.08333 $l=0.0060 $w=0.0120 $lvl=9
R3_26 Y:10 Y:14 14.5833 $l=0.0420 $w=0.0120 $lvl=9
R3_27 Y:11 Y:17 0.751052 $l=0.0060 $w=0.0250 $lvl=16
R3_28 Y:12 Y:13 63.5281 $a=0.00014400 $lvl=31
R3_29 Y:12 Y:15 2.08333 $l=0.0060 $w=0.0120 $lvl=9
R3_30 Y:13 Y:16 4.1529 $l=0.0070 $w=0.0200 $lvl=13

*|NET A 1.69157e-05PF
*|P (A B 0 0.0210 0.0600) // $llx=0.0150 $lly=0.0540 $urx=0.0270 $ury=0.0660 $lvl=33
*|I (MM0:GATE MM0 GATE I 3.6e-19 0.0420 0.0300) // $llx=0.0420 $lly=0.0300 $urx=0.0420 $ury=0.0300 $lvl=11
*|I (MM4:GATE MM4 GATE I 3.6e-19 0.0420 0.0900) // $llx=0.0420 $lly=0.0900 $urx=0.0420 $ury=0.0900 $lvl=12
*|S (A:4 0.0420 0.0150) // $llx=0.0360 $lly=0.0150 $urx=0.0480 $ury=0.0150 $lvl=10
*|S (A:5 0.0420 0.0450) // $llx=0.0360 $lly=0.0450 $urx=0.0480 $ury=0.0450 $lvl=11
*|S (A:6 0.0420 0.0750) // $llx=0.0360 $lly=0.0750 $urx=0.0480 $ury=0.0750 $lvl=10
*|S (A:7 0.0420 0.1050) // $llx=0.0360 $lly=0.1050 $urx=0.0480 $ury=0.1050 $lvl=12
*|S (A:8 0.0420 0.1100) // $llx=0.0360 $lly=0.1100 $urx=0.0480 $ury=0.1100 $lvl=10
*|S (A:9 0.0420 0.0600) // $llx=0.0360 $lly=0.0540 $urx=0.0480 $ury=0.0660 $lvl=10
*|S (A:10 0.0210 0.0600) // $llx=0.0150 $lly=0.0540 $urx=0.0270 $ury=0.0660 $lvl=14
*|S (A:11 0.0210 0.0180) // $llx=0.0150 $lly=0.0180 $urx=0.0270 $ury=0.0180 $lvl=9
*|S (A:12 0.0420 0.0100) // $llx=0.0360 $lly=0.0100 $urx=0.0480 $ury=0.0100 $lvl=10
*|S (A:13 0.0150 0.0600) // $llx=0.0150 $lly=0.0540 $urx=0.0150 $ury=0.0660 $lvl=14
*|S (A:14 0.0210 0.0780) // $llx=0.0150 $lly=0.0780 $urx=0.0270 $ury=0.0780 $lvl=9
C4_1 A:11 MM0:BULK 6.69643e-19
C4_2 A:11 VSS:5 2.22826e-19
C4_3 A:6 VSS:14 4.65718e-20
C4_4 A:9 VSS:14 3.78951e-21
C4_5 A:11 VSS:14 1.03062e-19
C4_6 A:11 VSS:15 4.48978e-20
C4_7 A:11 VSS:19 2.05844e-18
C4_8 A:11 VSS:20 3.44814e-19
C4_9 A:6 VDD:12 5.98297e-20
C4_10 A:7 VDD:12 2.25945e-19
C4_11 A:8 VDD:12 1.49656e-19
C4_12 A:9 VDD:12 2.63976e-19
C4_13 A:11 VDD:18 3.44894e-20
C4_14 A:9 VDD:19 1.14344e-20
C4_15 A:7 VDD:26 3.83923e-20
C4_16 A:8 VDD:26 4.29081e-20
C4_17 A:11 VDD:26 1.16268e-19
Cg4_18 A:4 0 6.03295e-20
Cg4_19 A:5 0 2.43715e-19
Cg4_20 A:6 0 2.72053e-19
Cg4_21 A:7 0 3.68393e-19
Cg4_22 A:8 0 1.74064e-19
Cg4_23 A:9 0 1.73622e-19
Cg4_24 A:11 0 3.14696e-18
R4_1 A A:11 14.5833 $l=0.0420 $w=0.0120 $lvl=9
R4_2 A A:14 6.25 $l=0.0180 $w=0.0120 $lvl=9
R4_3 A A:10 63.5281 $a=0.00014400 $lvl=30
R4_4 MM0:GATE A:5 6.57895 $l=0.0150 $w=0.0120 $lvl=11
R4_5 MM0:GATE A:4 6.57895 $l=0.0150 $w=0.0120 $lvl=11
R4_6 MM4:GATE A:7 6.57895 $l=0.0150 $w=0.0120 $lvl=12
R4_7 MM4:GATE A:6 6.57895 $l=0.0150 $w=0.0120 $lvl=12
R4_8 A:4 A:12 2.19298 $l=0.0050 $w=0.0120 $lvl=10
R4_9 A:5 A:9 6.57895 $l=0.0150 $w=0.0120 $lvl=10
R4_10 A:6 A:9 6.57895 $l=0.0150 $w=0.0120 $lvl=10
R4_11 A:7 A:8 2.19298 $l=0.0050 $w=0.0120 $lvl=10
R4_12 A:9 A:10 27.7339 $l=0.0210 $w=0.0120 $lvl=14
R4_13 A:10 A:13 7.92396 $l=0.0060 $w=0.0120 $lvl=14

*|NET B 1.62664e-05PF
*|P (B B 0 0.0630 0.0600) // $llx=0.0570 $lly=0.0540 $urx=0.0690 $ury=0.0660 $lvl=33
*|I (MM1:GATE MM1 GATE I 3.6e-19 0.0840 0.0300) // $llx=0.0840 $lly=0.0300 $urx=0.0840 $ury=0.0300 $lvl=11
*|I (MM5:GATE MM5 GATE I 3.6e-19 0.0840 0.0900) // $llx=0.0840 $lly=0.0900 $urx=0.0840 $ury=0.0900 $lvl=12
*|S (B:4 0.0840 0.0150) // $llx=0.0780 $lly=0.0150 $urx=0.0900 $ury=0.0150 $lvl=10
*|S (B:5 0.0840 0.0450) // $llx=0.0780 $lly=0.0450 $urx=0.0900 $ury=0.0450 $lvl=11
*|S (B:6 0.0840 0.0750) // $llx=0.0780 $lly=0.0750 $urx=0.0900 $ury=0.0750 $lvl=10
*|S (B:7 0.0840 0.1050) // $llx=0.0780 $lly=0.1050 $urx=0.0900 $ury=0.1050 $lvl=12
*|S (B:8 0.0840 0.1100) // $llx=0.0780 $lly=0.1100 $urx=0.0900 $ury=0.1100 $lvl=10
*|S (B:9 0.0840 0.0600) // $llx=0.0780 $lly=0.0540 $urx=0.0900 $ury=0.0660 $lvl=10
*|S (B:10 0.0630 0.0600) // $llx=0.0570 $lly=0.0540 $urx=0.0690 $ury=0.0660 $lvl=14
*|S (B:11 0.0630 0.0180) // $llx=0.0570 $lly=0.0180 $urx=0.0690 $ury=0.0180 $lvl=9
*|S (B:12 0.0840 0.0100) // $llx=0.0780 $lly=0.0100 $urx=0.0900 $ury=0.0100 $lvl=10
*|S (B:13 0.0570 0.0600) // $llx=0.0570 $lly=0.0540 $urx=0.0570 $ury=0.0660 $lvl=14
*|S (B:14 0.0630 0.0780) // $llx=0.0570 $lly=0.0780 $urx=0.0690 $ury=0.0780 $lvl=9
C5_1 B:11 MM0:BULK 3.32674e-19
C5_2 B:11 VSS:5 8.43706e-20
C5_3 B:6 VSS:14 4.65718e-20
C5_4 B:9 VSS:14 3.78951e-21
C5_5 B:11 VSS:14 8.74295e-20
C5_6 B:11 VSS:19 2.26381e-18
C5_7 B:11 VSS:20 8.67753e-20
C5_8 B:11 VDD:8 1.21845e-20
C5_9 B:6 VDD:12 5.98297e-20
C5_10 B:7 VDD:12 2.25945e-19
C5_11 B:8 VDD:12 1.49656e-19
C5_12 B:9 VDD:12 2.62776e-19
C5_13 B:11 VDD:12 1.1259e-19
C5_14 B:11 VDD:20 3.27822e-20
C5_15 B:9 VDD:21 1.14344e-20
C5_16 B:9 VDD:22 7.07224e-19
C5_17 B:11 VDD:22 1.93571e-20
C5_18 B:7 VDD:26 3.83923e-20
C5_19 B:8 VDD:26 4.29081e-20
C5_20 B:11 VDD:26 1.86907e-19
C5_21 B:11 Y:14 9.7817e-19
C5_22 B:11 Y:15 3.13781e-19
C5_23 B:11 A:11 2.92874e-18
Cg5_24 B:4 0 6.03295e-20
Cg5_25 B:5 0 2.43715e-19
Cg5_26 B:6 0 2.72053e-19
Cg5_27 B:7 0 3.68393e-19
Cg5_28 B:8 0 1.74064e-19
Cg5_29 B:9 0 1.57033e-19
Cg5_30 B:11 0 1.46814e-18
R5_1 B B:11 14.5833 $l=0.0420 $w=0.0120 $lvl=9
R5_2 B B:14 6.25 $l=0.0180 $w=0.0120 $lvl=9
R5_3 B B:10 63.5281 $a=0.00014400 $lvl=30
R5_4 MM1:GATE B:5 6.57895 $l=0.0150 $w=0.0120 $lvl=11
R5_5 MM1:GATE B:4 6.57895 $l=0.0150 $w=0.0120 $lvl=11
R5_6 MM5:GATE B:7 6.57895 $l=0.0150 $w=0.0120 $lvl=12
R5_7 MM5:GATE B:6 6.57895 $l=0.0150 $w=0.0120 $lvl=12
R5_8 B:4 B:12 2.19298 $l=0.0050 $w=0.0120 $lvl=10
R5_9 B:5 B:9 6.57895 $l=0.0150 $w=0.0120 $lvl=10
R5_10 B:6 B:9 6.57895 $l=0.0150 $w=0.0120 $lvl=10
R5_11 B:7 B:8 2.19298 $l=0.0050 $w=0.0120 $lvl=10
R5_12 B:9 B:10 27.7339 $l=0.0210 $w=0.0120 $lvl=14
R5_13 B:10 B:13 7.92396 $l=0.0060 $w=0.0120 $lvl=14

*|NET C 1.40782e-05PF
*|P (C B 0 0.1050 0.0600) // $llx=0.0990 $lly=0.0540 $urx=0.1110 $ury=0.0660 $lvl=33
*|I (MM2:GATE MM2 GATE I 3.6e-19 0.1260 0.0300) // $llx=0.1260 $lly=0.0300 $urx=0.1260 $ury=0.0300 $lvl=11
*|I (MM6:GATE MM6 GATE I 3.6e-19 0.1260 0.0900) // $llx=0.1260 $lly=0.0900 $urx=0.1260 $ury=0.0900 $lvl=12
*|S (C:4 0.1260 0.0150) // $llx=0.1200 $lly=0.0150 $urx=0.1320 $ury=0.0150 $lvl=10
*|S (C:5 0.1260 0.0450) // $llx=0.1200 $lly=0.0450 $urx=0.1320 $ury=0.0450 $lvl=11
*|S (C:6 0.1260 0.0750) // $llx=0.1200 $lly=0.0750 $urx=0.1320 $ury=0.0750 $lvl=10
*|S (C:7 0.1260 0.1050) // $llx=0.1200 $lly=0.1050 $urx=0.1320 $ury=0.1050 $lvl=12
*|S (C:8 0.1260 0.1100) // $llx=0.1200 $lly=0.1100 $urx=0.1320 $ury=0.1100 $lvl=10
*|S (C:9 0.1260 0.0600) // $llx=0.1200 $lly=0.0540 $urx=0.1320 $ury=0.0660 $lvl=10
*|S (C:10 0.1050 0.0600) // $llx=0.0990 $lly=0.0540 $urx=0.1110 $ury=0.0660 $lvl=14
*|S (C:11 0.1050 0.0420) // $llx=0.0990 $lly=0.0420 $urx=0.1110 $ury=0.0420 $lvl=9
*|S (C:12 0.1260 0.0100) // $llx=0.1200 $lly=0.0100 $urx=0.1320 $ury=0.0100 $lvl=10
*|S (C:13 0.0990 0.0600) // $llx=0.0990 $lly=0.0540 $urx=0.0990 $ury=0.0660 $lvl=14
*|S (C:14 0.1050 0.0780) // $llx=0.0990 $lly=0.0780 $urx=0.1110 $ury=0.0780 $lvl=9
C6_1 C:11 MM0:BULK 2.971e-19
C6_2 C:4 VSS:14 5.3734e-19
C6_3 C:5 VSS:14 9.26205e-21
C6_4 C:11 VSS:19 1.55561e-19
C6_5 C:11 VDD:8 2.53112e-20
C6_6 C:6 VDD:12 5.97128e-20
C6_7 C:7 VDD:12 2.25945e-19
C6_8 C:8 VDD:12 1.49656e-19
C6_9 C:9 VDD:12 2.62776e-19
C6_10 C:11 VDD:12 3.68138e-20
C6_11 C:11 VDD:23 4.15188e-20
C6_12 C:9 VDD:24 1.14344e-20
C6_13 C:7 VDD:26 3.83923e-20
C6_14 C:8 VDD:26 4.29081e-20
C6_15 C:11 VDD:26 1.55561e-19
C6_16 C:11 MM1:DRN 1.93571e-20
C6_17 C:11 Y:6 2.58764e-20
C6_18 C:11 Y:8 1.46301e-20
C6_19 C:5 Y:14 7.93704e-20
C6_20 C:6 Y:14 1.04717e-19
C6_21 C:11 Y:14 2.1176e-18
C6_22 C:6 Y:15 4.13645e-20
C6_23 C:9 Y:15 4.82907e-20
C6_24 C:11 Y:15 1.84719e-18
C6_25 C:11 B:11 1.86372e-18
Cg6_26 C:4 0 4.06191e-20
Cg6_27 C:5 0 2.43715e-19
Cg6_28 C:6 0 2.71935e-19
Cg6_29 C:7 0 3.68393e-19
Cg6_30 C:8 0 1.74064e-19
Cg6_31 C:9 0 1.57033e-19
Cg6_32 C:11 0 1.46291e-18
R6_1 C C:11 6.25 $l=0.0180 $w=0.0120 $lvl=9
R6_2 C C:14 6.25 $l=0.0180 $w=0.0120 $lvl=9
R6_3 C C:10 63.5281 $a=0.00014400 $lvl=30
R6_4 MM2:GATE C:5 6.57895 $l=0.0150 $w=0.0120 $lvl=11
R6_5 MM2:GATE C:4 6.57895 $l=0.0150 $w=0.0120 $lvl=11
R6_6 MM6:GATE C:7 6.57895 $l=0.0150 $w=0.0120 $lvl=12
R6_7 MM6:GATE C:6 6.57895 $l=0.0150 $w=0.0120 $lvl=12
R6_8 C:4 C:12 2.19298 $l=0.0050 $w=0.0120 $lvl=10
R6_9 C:5 C:9 6.57895 $l=0.0150 $w=0.0120 $lvl=10
R6_10 C:6 C:9 6.57895 $l=0.0150 $w=0.0120 $lvl=10
R6_11 C:7 C:8 2.19298 $l=0.0050 $w=0.0120 $lvl=10
R6_12 C:9 C:10 27.7339 $l=0.0210 $w=0.0120 $lvl=14
R6_13 C:10 C:13 7.92396 $l=0.0060 $w=0.0120 $lvl=14

*|NET D 1.97544e-05PF
*|P (D B 0 0.1890 0.0600) // $llx=0.1830 $lly=0.0540 $urx=0.1950 $ury=0.0660 $lvl=33
*|I (MM3:GATE MM3 GATE I 3.6e-19 0.1680 0.0300) // $llx=0.1680 $lly=0.0300 $urx=0.1680 $ury=0.0300 $lvl=11
*|I (MM7:GATE MM7 GATE I 3.6e-19 0.1680 0.0900) // $llx=0.1680 $lly=0.0900 $urx=0.1680 $ury=0.0900 $lvl=12
*|S (D:4 0.1680 0.0150) // $llx=0.1620 $lly=0.0150 $urx=0.1740 $ury=0.0150 $lvl=10
*|S (D:5 0.1680 0.0450) // $llx=0.1620 $lly=0.0450 $urx=0.1740 $ury=0.0450 $lvl=11
*|S (D:6 0.1680 0.0750) // $llx=0.1620 $lly=0.0750 $urx=0.1740 $ury=0.0750 $lvl=10
*|S (D:7 0.1680 0.1050) // $llx=0.1620 $lly=0.1050 $urx=0.1740 $ury=0.1050 $lvl=12
*|S (D:8 0.1680 0.1100) // $llx=0.1620 $lly=0.1100 $urx=0.1740 $ury=0.1100 $lvl=10
*|S (D:9 0.1680 0.0600) // $llx=0.1620 $lly=0.0540 $urx=0.1740 $ury=0.0660 $lvl=10
*|S (D:10 0.1890 0.0600) // $llx=0.1830 $lly=0.0540 $urx=0.1950 $ury=0.0660 $lvl=14
*|S (D:11 0.1890 0.0180) // $llx=0.1830 $lly=0.0180 $urx=0.1950 $ury=0.0180 $lvl=9
*|S (D:12 0.1680 0.0100) // $llx=0.1620 $lly=0.0100 $urx=0.1740 $ury=0.0100 $lvl=10
*|S (D:13 0.1950 0.0600) // $llx=0.1950 $lly=0.0540 $urx=0.1950 $ury=0.0660 $lvl=14
*|S (D:14 0.1890 0.0780) // $llx=0.1830 $lly=0.0780 $urx=0.1950 $ury=0.0780 $lvl=9
C7_1 D:11 MM0:BULK 2.03121e-19
C7_2 D:11 VSS:6 1.11031e-19
C7_3 D:4 VSS:14 5.39477e-19
C7_4 D:5 VSS:14 9.37832e-21
C7_5 D:11 VSS:14 7.75745e-19
C7_6 D:11 VSS:16 1.62778e-19
C7_7 D:11 VSS:17 3.78706e-20
C7_8 D:11 VSS:18 1.58408e-36
C7_9 D:4 VSS:19 1.05239e-20
C7_10 D:11 VSS:19 2.09551e-18
C7_11 D:6 Y:7 3.49697e-19
C7_12 D:7 Y:7 6.8684e-19
C7_13 D:11 Y:7 6.386e-20
C7_14 D:7 Y:9 1.70091e-18
C7_15 D:11 Y:9 2.54898e-20
C7_16 D:5 Y:14 7.37081e-20
C7_17 D:11 Y:14 7.77661e-19
C7_18 D:5 Y:15 6.14234e-20
C7_19 D:6 Y:15 1.30042e-19
C7_20 D:7 Y:15 3.99547e-20
C7_21 D:11 Y:15 2.10786e-18
Cg7_22 D:4 0 3.63205e-19
Cg7_23 D:5 0 2.43715e-19
Cg7_24 D:6 0 1.76504e-18
Cg7_25 D:7 0 2.43715e-19
Cg7_26 D:8 0 6.72671e-19
Cg7_27 D:9 0 5.30759e-19
Cg7_28 D:11 0 2.86025e-18
R7_1 D D:11 14.5833 $l=0.0420 $w=0.0120 $lvl=9
R7_2 D D:14 6.25 $l=0.0180 $w=0.0120 $lvl=9
R7_3 D D:10 63.5281 $a=0.00014400 $lvl=30
R7_4 MM3:GATE D:5 6.57895 $l=0.0150 $w=0.0120 $lvl=11
R7_5 MM3:GATE D:4 6.57895 $l=0.0150 $w=0.0120 $lvl=11
R7_6 MM7:GATE D:7 6.57895 $l=0.0150 $w=0.0120 $lvl=12
R7_7 MM7:GATE D:6 6.57895 $l=0.0150 $w=0.0120 $lvl=12
R7_8 D:4 D:12 2.19298 $l=0.0050 $w=0.0120 $lvl=10
R7_9 D:5 D:9 6.57895 $l=0.0150 $w=0.0120 $lvl=10
R7_10 D:6 D:9 6.57895 $l=0.0150 $w=0.0120 $lvl=10
R7_11 D:7 D:8 2.19298 $l=0.0050 $w=0.0120 $lvl=10
R7_12 D:9 D:10 27.7339 $l=0.0210 $w=0.0120 $lvl=14
R7_13 D:10 D:13 7.92396 $l=0.0060 $w=0.0120 $lvl=14

*|NET net35 1.6659e-06PF
*|I (MM1:SRC MM1 SRC B 0 0.0780 0.0300) // $llx=0.0780 $lly=0.0300 $urx=0.0780 $ury=0.0300 $lvl=16
*|I (MM0:DRN MM0 DRN B 0 0.0480 0.0300) // $llx=0.0480 $lly=0.0300 $urx=0.0480 $ury=0.0300 $lvl=16
C9_1 MM0:DRN VSS:5 2.82443e-20
C9_2 MM0:DRN VSS:14 8.97152e-19
C9_3 MM0:DRN VSS:20 2.13821e-20
C9_4 MM0:DRN B:11 9.78931e-20
Cg9_5 MM0:DRN 0 6.21225e-19
R9_1 MM1:SRC MM0:DRN 1.0 $l=0.0300 $w=0.0300 $lvl=16

*|NET net34 1.53014e-06PF
*|I (MM3:DRN MM3 DRN B 0 0.1620 0.0300) // $llx=0.1620 $lly=0.0300 $urx=0.1620 $ury=0.0300 $lvl=16
*|I (MM2:SRC MM2 SRC B 0 0.1320 0.0300) // $llx=0.1320 $lly=0.0300 $urx=0.1320 $ury=0.0300 $lvl=16
C10_1 MM2:SRC VSS:14 6.72913e-19
C10_2 MM2:SRC Y:6 2.59073e-20
C10_3 MM2:SRC Y:8 2.91317e-20
C10_4 MM2:SRC Y:14 1.00284e-19
C10_5 MM2:SRC Y:15 8.0683e-20
Cg10_6 MM2:SRC 0 6.21225e-19
R10_1 MM3:DRN MM2:SRC 1.0 $l=0.0300 $w=0.0300 $lvl=16

*|NET net20 4.58045e-05PF
*|I (MM7:SRC MM7 SRC B 0 0.1740 0.0900) // $llx=0.1740 $lly=0.0900 $urx=0.1740 $ury=0.0900 $lvl=17
*|I (MM6:SRC MM6 SRC B 0 0.1200 0.0900) // $llx=0.1200 $lly=0.0900 $urx=0.1200 $ury=0.0900 $lvl=17
*|I (MM5:DRN MM5 DRN B 0 0.0900 0.0900) // $llx=0.0900 $lly=0.0900 $urx=0.0900 $ury=0.0900 $lvl=17
*|I (MM4:DRN MM4 DRN B 0 0.0360 0.0900) // $llx=0.0360 $lly=0.0900 $urx=0.0360 $ury=0.0900 $lvl=17
*|S (net20:5 0.0210 0.0750) // $llx=0.0110 $lly=0.0750 $urx=0.0310 $ury=0.0750 $lvl=13
*|S (net20:6 0.1050 0.0750) // $llx=0.0950 $lly=0.0750 $urx=0.1150 $ury=0.0750 $lvl=13
*|S (net20:7 0.1890 0.0750) // $llx=0.1790 $lly=0.0750 $urx=0.1990 $ury=0.0750 $lvl=13
*|S (net20:8 0.0210 0.1050) // $llx=0.0110 $lly=0.1050 $urx=0.0310 $ury=0.1050 $lvl=13
*|S (net20:9 0.1050 0.1050) // $llx=0.0950 $lly=0.1050 $urx=0.1150 $ury=0.1050 $lvl=13
*|S (net20:10 0.1890 0.1050) // $llx=0.1790 $lly=0.1050 $urx=0.1990 $ury=0.1050 $lvl=13
*|S (net20:11 0.0210 0.0960) // $llx=0.0150 $lly=0.0900 $urx=0.0270 $ury=0.1020 $lvl=9
*|S (net20:12 0.0210 0.0960) // $llx=0.0110 $lly=0.0900 $urx=0.0310 $ury=0.1020 $lvl=13
*|S (net20:13 0.1050 0.0960) // $llx=0.0990 $lly=0.0900 $urx=0.1110 $ury=0.1020 $lvl=9
*|S (net20:14 0.1050 0.0960) // $llx=0.0950 $lly=0.0900 $urx=0.1150 $ury=0.1020 $lvl=13
*|S (net20:15 0.1890 0.0960) // $llx=0.1830 $lly=0.0900 $urx=0.1950 $ury=0.1020 $lvl=9
*|S (net20:16 0.1890 0.0960) // $llx=0.1790 $lly=0.0900 $urx=0.1990 $ury=0.1020 $lvl=13
*|S (net20:17 0.0150 0.0960) // $llx=0.0150 $lly=0.0900 $urx=0.0150 $ury=0.1020 $lvl=9
*|S (net20:18 0.0210 0.0900) // $llx=0.0110 $lly=0.0900 $urx=0.0310 $ury=0.0900 $lvl=15
*|S (net20:19 0.1050 0.0900) // $llx=0.0950 $lly=0.0900 $urx=0.1150 $ury=0.0900 $lvl=15
*|S (net20:20 0.1890 0.0900) // $llx=0.1790 $lly=0.0900 $urx=0.1990 $ury=0.0900 $lvl=15
*|S (net20:21 0.1950 0.0960) // $llx=0.1950 $lly=0.0900 $urx=0.1950 $ury=0.1020 $lvl=9
C11_1 net20:5 MM0:BULK 8.30851e-19
C11_2 net20:6 MM0:BULK 8.30851e-19
C11_3 net20:8 MM0:BULK 8.25413e-19
C11_4 net20:9 MM0:BULK 8.25413e-19
C11_5 net20:17 MM0:BULK 3.6948e-19
C11_6 net20:5 VSS:14 6.86023e-21
C11_7 net20:17 VSS:19 9.44967e-19
C11_8 net20:17 MM7:BULK 1.31368e-19
C11_9 MM5:DRN VDD:8 2.82443e-20
C11_10 net20:17 VDD:8 1.76541e-19
C11_11 MM5:DRN VDD:12 2.49458e-20
C11_12 net20:17 VDD:12 3.77214e-19
C11_13 net20:17 VDD:19 5.06589e-21
C11_14 net20:17 VDD:21 5.52281e-20
C11_15 net20:5 VDD:22 2.59073e-20
C11_16 net20:8 VDD:22 2.91317e-20
C11_17 net20:17 VDD:22 5.24454e-20
C11_18 net20:17 VDD:24 4.64524e-20
C11_19 net20:17 VDD:25 4.24914e-20
C11_20 net20:17 VDD:26 1.63096e-17
C11_21 net20:6 MM6:DRN 2.59073e-20
C11_22 net20:9 MM6:DRN 2.91317e-20
C11_23 net20:17 MM6:DRN 5.27354e-20
C11_24 MM7:SRC Y:7 3.22767e-20
C11_25 net20:17 Y:7 5.23214e-19
C11_26 MM7:SRC Y:9 2.83041e-20
C11_27 net20:17 Y:9 1.39709e-19
C11_28 net20:17 Y:14 5.82935e-19
C11_29 net20:6 Y:15 3.68138e-20
C11_30 net20:9 Y:15 2.53112e-20
C11_31 net20:17 Y:15 1.95015e-18
C11_32 net20:17 A:4 4.72577e-21
C11_33 net20:17 A:6 8.51952e-20
C11_34 net20:17 A:7 7.98689e-20
C11_35 net20:17 A:8 1.77094e-20
C11_36 MM4:DRN A:9 2.11888e-19
C11_37 net20:5 A:9 2.26077e-18
C11_38 net20:17 A:9 9.90462e-20
C11_39 MM4:DRN A:11 1.82092e-20
C11_40 net20:5 A:11 2.1466e-19
C11_41 net20:8 A:11 1.21845e-20
C11_42 net20:17 A:11 2.10659e-18
C11_43 net20:17 B:4 4.72577e-21
C11_44 net20:17 B:6 6.17839e-20
C11_45 net20:17 B:7 6.08171e-20
C11_46 net20:17 B:8 1.61166e-20
C11_47 net20:17 B:9 1.42783e-19