*
*|DSPF 1.3
*|DESIGN BUFx5
*|DATE "Tue Oct 15 21:09:55 2024"
*|VENDOR "Synopsys"
*|PROGRAM "StarRC"
*|VERSION "V-2023.12-SP5"
*|DIVIDER .
*|DELIMITER :
**FORMAT SPF
*

** COMMENTS

** OPERATING_TEMPERATURE 25
** GLOBAL_TEMPERATURE 25
** 
** TCAD_GRD_FILE /home/gtcad/ctsai314/ITF_Modification/0_reference/3nm_FF_noBPR.nxtgrd
**   TCAD_TIME_STAMP Tue Sep 3 21:56:12 2024
**   TCADGRD_VERSION 89

.SUBCKT BUFx5 A VDD VSS Y

*|GROUND_NET 0

*LAYER_MAP

*0 SUBSTRATE
*1 m9    ITF=M9
*2 m8    ITF=M8
*3 m7    ITF=M7
*4 m6    ITF=M6
*5 m5    ITF=M5
*6 m4    ITF=M4
*7 m3    ITF=M3
*8 m2    ITF=M2
*9 m1    ITF=M1
*10 fpoly    ITF=Gate
*11 ngate    ITF=Gate
*12 pgate    ITF=Gate
*13 lisd    ITF=LISD
*14 lig    ITF=LIG
*15 sdt    ITF=SDT
*16 nsd    ITF=Active
*17 psd    ITF=Active
*18 pselect    ITF=Active
*19 well    ITF=Active
*20 sub    ITF=Active
*21 nselect    ITF=Active
*22 v8    ITF=V8
*23 v7    ITF=V7
*24 v6    ITF=V6
*25 v5    ITF=V5
*26 v4    ITF=V4
*27 v3    ITF=V3
*28 v2    ITF=V2
*29 v1    ITF=V1
*30 v0lig    ITF=V0LIG
*31 v0lisd    ITF=V0LISD
*32 well_pin    ITF=Active
*33 M1_pin    ITF=M1
*34 M2_pin    ITF=M2
*35 M3_pin    ITF=M3
*36 M4_pin    ITF=M4
*37 M5_pin    ITF=M5
*38 M6_pin    ITF=M6
*39 M7_pin    ITF=M7
*40 M8_pin    ITF=M8
*41 M9_pin    ITF=M9

*|NET A 3.9548e-05PF
*|P (A B 0 0.0210 0.0600) // $llx=0.0200 $lly=0.0590 $urx=0.0220 $ury=0.0610 $lvl=33
*|I (MM16:GATE MM16 GATE I 3.6e-19 0.1680 0.0900) // $llx=0.1680 $lly=0.0900 $urx=0.1680 $ury=0.0900 $lvl=12
*|I (MM15:GATE MM15 GATE I 3.6e-19 0.1260 0.0900) // $llx=0.1260 $lly=0.0900 $urx=0.1260 $ury=0.0900 $lvl=12
*|I (MM12:GATE MM12 GATE I 3.6e-19 0.0840 0.0900) // $llx=0.0840 $lly=0.0900 $urx=0.0840 $ury=0.0900 $lvl=12
*|I (MM1:GATE MM1 GATE I 3.6e-19 0.0420 0.0900) // $llx=0.0420 $lly=0.0900 $urx=0.0420 $ury=0.0900 $lvl=12
*|I (MM17:GATE MM17 GATE I 3.6e-19 0.1680 0.0300) // $llx=0.1680 $lly=0.0300 $urx=0.1680 $ury=0.0300 $lvl=11
*|I (MM14:GATE MM14 GATE I 3.6e-19 0.1260 0.0300) // $llx=0.1260 $lly=0.0300 $urx=0.1260 $ury=0.0300 $lvl=11
*|I (MM13:GATE MM13 GATE I 3.6e-19 0.0840 0.0300) // $llx=0.0840 $lly=0.0300 $urx=0.0840 $ury=0.0300 $lvl=11
*|I (MM0:GATE MM0 GATE I 3.6e-19 0.0420 0.0300) // $llx=0.0420 $lly=0.0300 $urx=0.0420 $ury=0.0300 $lvl=11
*|S (A:10 0.0420 0.0150) // $llx=0.0360 $lly=0.0150 $urx=0.0480 $ury=0.0150 $lvl=10
*|S (A:11 0.0420 0.0450) // $llx=0.0360 $lly=0.0450 $urx=0.0480 $ury=0.0450 $lvl=11
*|S (A:12 0.0420 0.0750) // $llx=0.0360 $lly=0.0750 $urx=0.0480 $ury=0.0750 $lvl=10
*|S (A:13 0.0420 0.1050) // $llx=0.0360 $lly=0.1050 $urx=0.0480 $ury=0.1050 $lvl=12
*|S (A:14 0.0420 0.1100) // $llx=0.0360 $lly=0.1100 $urx=0.0480 $ury=0.1100 $lvl=10
*|S (A:15 0.0840 0.0150) // $llx=0.0780 $lly=0.0150 $urx=0.0900 $ury=0.0150 $lvl=10
*|S (A:16 0.0840 0.0450) // $llx=0.0780 $lly=0.0450 $urx=0.0900 $ury=0.0450 $lvl=11
*|S (A:17 0.0840 0.0750) // $llx=0.0780 $lly=0.0750 $urx=0.0900 $ury=0.0750 $lvl=10
*|S (A:18 0.0840 0.1050) // $llx=0.0780 $lly=0.1050 $urx=0.0900 $ury=0.1050 $lvl=12
*|S (A:19 0.0840 0.1100) // $llx=0.0780 $lly=0.1100 $urx=0.0900 $ury=0.1100 $lvl=10
*|S (A:20 0.1260 0.0150) // $llx=0.1200 $lly=0.0150 $urx=0.1320 $ury=0.0150 $lvl=10
*|S (A:21 0.1260 0.0450) // $llx=0.1200 $lly=0.0450 $urx=0.1320 $ury=0.0450 $lvl=11
*|S (A:22 0.1260 0.0750) // $llx=0.1200 $lly=0.0750 $urx=0.1320 $ury=0.0750 $lvl=10
*|S (A:23 0.1260 0.1050) // $llx=0.1200 $lly=0.1050 $urx=0.1320 $ury=0.1050 $lvl=12
*|S (A:24 0.1260 0.1100) // $llx=0.1200 $lly=0.1100 $urx=0.1320 $ury=0.1100 $lvl=10
*|S (A:25 0.1680 0.0150) // $llx=0.1620 $lly=0.0150 $urx=0.1740 $ury=0.0150 $lvl=10
*|S (A:26 0.1680 0.0450) // $llx=0.1620 $lly=0.0450 $urx=0.1740 $ury=0.0450 $lvl=11
*|S (A:27 0.1680 0.0750) // $llx=0.1620 $lly=0.0750 $urx=0.1740 $ury=0.0750 $lvl=10
*|S (A:28 0.1680 0.1050) // $llx=0.1620 $lly=0.1050 $urx=0.1740 $ury=0.1050 $lvl=12
*|S (A:29 0.1680 0.1100) // $llx=0.1620 $lly=0.1100 $urx=0.1740 $ury=0.1100 $lvl=10
*|S (A:30 0.1260 0.0600) // $llx=0.1200 $lly=0.0540 $urx=0.1320 $ury=0.0660 $lvl=10
*|S (A:31 0.0420 0.0600) // $llx=0.0360 $lly=0.0540 $urx=0.0480 $ury=0.0660 $lvl=9
*|S (A:32 0.0420 0.0600) // $llx=0.0360 $lly=0.0540 $urx=0.0480 $ury=0.0660 $lvl=10
*|S (A:33 0.0840 0.0600) // $llx=0.0780 $lly=0.0540 $urx=0.0900 $ury=0.0660 $lvl=9
*|S (A:34 0.0840 0.0600) // $llx=0.0780 $lly=0.0540 $urx=0.0900 $ury=0.0660 $lvl=10
*|S (A:35 0.1470 0.0600) // $llx=0.1410 $lly=0.0540 $urx=0.1530 $ury=0.0660 $lvl=9
*|S (A:36 0.1470 0.0600) // $llx=0.1410 $lly=0.0540 $urx=0.1530 $ury=0.0660 $lvl=14
*|S (A:37 0.1530 0.0600) // $llx=0.1530 $lly=0.0540 $urx=0.1530 $ury=0.0660 $lvl=9
*|S (A:38 0.0210 0.1020) // $llx=0.0150 $lly=0.1020 $urx=0.0270 $ury=0.1020 $lvl=9
*|S (A:39 0.0420 0.0100) // $llx=0.0360 $lly=0.0100 $urx=0.0480 $ury=0.0100 $lvl=10
*|S (A:40 0.0840 0.0100) // $llx=0.0780 $lly=0.0100 $urx=0.0900 $ury=0.0100 $lvl=10
*|S (A:41 0.1260 0.0100) // $llx=0.1200 $lly=0.0100 $urx=0.1320 $ury=0.0100 $lvl=10
*|S (A:42 0.1680 0.0100) // $llx=0.1620 $lly=0.0100 $urx=0.1740 $ury=0.0100 $lvl=10
*|S (A:43 0.1680 0.0600) // $llx=0.1620 $lly=0.0540 $urx=0.1740 $ury=0.0660 $lvl=10
*|S (A:44 0.0210 0.0180) // $llx=0.0150 $lly=0.0180 $urx=0.0270 $ury=0.0180 $lvl=9
Cg1_1 A 0 1.71105e-18
Cg1_2 A:10 0 6.02191e-20
Cg1_3 A:11 0 2.43715e-19
Cg1_4 A:12 0 2.6987e-19
Cg1_5 A:13 0 3.75304e-19
Cg1_6 A:14 0 1.72208e-19
Cg1_7 A:15 0 6.11935e-20
Cg1_8 A:16 0 2.43715e-19
Cg1_9 A:17 0 2.70364e-19
Cg1_10 A:18 0 3.68393e-19
Cg1_11 A:19 0 1.74064e-19
Cg1_12 A:20 0 6.11935e-20
Cg1_13 A:21 0 2.43715e-19
Cg1_14 A:22 0 2.70364e-19
Cg1_15 A:23 0 3.68393e-19
Cg1_16 A:24 0 1.74064e-19
Cg1_17 A:25 0 6.11935e-20
Cg1_18 A:26 0 2.43715e-19
Cg1_19 A:27 0 2.71935e-19
Cg1_20 A:28 0 3.68393e-19
Cg1_21 A:29 0 1.74064e-19
Cg1_22 A:30 0 2.81264e-19
Cg1_23 A:32 0 7.35588e-20
Cg1_24 A:34 0 7.35727e-20
Cg1_25 A:37 0 2.08024e-18
Cg1_26 A:38 0 1.86758e-18
R1_1 A A:31 7.29167 $l=0.0210 $w=0.0120 $lvl=9
R1_2 A A:38 14.5833 $l=0.0420 $w=0.0120 $lvl=9
R1_3 A A:44 13.5417 $l=0.0420 $w=0.0120 $lvl=9
R1_4 MM16:GATE A:28 6.57895 $l=0.0150 $w=0.0120 $lvl=12
R1_5 MM16:GATE A:27 6.57895 $l=0.0150 $w=0.0120 $lvl=12
R1_6 MM15:GATE A:23 6.57895 $l=0.0150 $w=0.0120 $lvl=12
R1_7 MM15:GATE A:22 6.57895 $l=0.0150 $w=0.0120 $lvl=12
R1_8 MM12:GATE A:18 6.57895 $l=0.0150 $w=0.0120 $lvl=12
R1_9 MM12:GATE A:17 6.57895 $l=0.0150 $w=0.0120 $lvl=12
R1_10 MM1:GATE A:13 6.57895 $l=0.0150 $w=0.0120 $lvl=12
R1_11 MM1:GATE A:12 6.57895 $l=0.0150 $w=0.0120 $lvl=12
R1_12 MM17:GATE A:26 6.57895 $l=0.0150 $w=0.0120 $lvl=11
R1_13 MM17:GATE A:25 6.57895 $l=0.0150 $w=0.0120 $lvl=11
R1_14 MM14:GATE A:21 6.57895 $l=0.0150 $w=0.0120 $lvl=11
R1_15 MM14:GATE A:20 6.57895 $l=0.0150 $w=0.0120 $lvl=11
R1_16 MM13:GATE A:16 6.57895 $l=0.0150 $w=0.0120 $lvl=11
R1_17 MM13:GATE A:15 6.57895 $l=0.0150 $w=0.0120 $lvl=11
R1_18 MM0:GATE A:11 6.57895 $l=0.0150 $w=0.0120 $lvl=11
R1_19 MM0:GATE A:10 6.57895 $l=0.0150 $w=0.0120 $lvl=11
R1_20 A:10 A:39 2.19298 $l=0.0050 $w=0.0120 $lvl=10
R1_21 A:11 A:32 6.57895 $l=0.0150 $w=0.0120 $lvl=10
R1_22 A:12 A:32 6.57895 $l=0.0150 $w=0.0120 $lvl=10
R1_23 A:13 A:14 2.19298 $l=0.0050 $w=0.0120 $lvl=10
R1_24 A:15 A:40 2.19298 $l=0.0050 $w=0.0120 $lvl=10
R1_25 A:16 A:34 6.57895 $l=0.0150 $w=0.0120 $lvl=10
R1_26 A:17 A:34 6.57895 $l=0.0150 $w=0.0120 $lvl=10
R1_27 A:18 A:19 2.19298 $l=0.0050 $w=0.0120 $lvl=10
R1_28 A:20 A:41 2.19298 $l=0.0050 $w=0.0120 $lvl=10
R1_29 A:21 A:30 6.57895 $l=0.0150 $w=0.0120 $lvl=10
R1_30 A:22 A:30 6.57895 $l=0.0150 $w=0.0120 $lvl=10
R1_31 A:23 A:24 2.19298 $l=0.0050 $w=0.0120 $lvl=10
R1_32 A:25 A:42 2.19298 $l=0.0050 $w=0.0120 $lvl=10
R1_33 A:26 A:43 6.57895 $l=0.0150 $w=0.0120 $lvl=10
R1_34 A:27 A:43 6.57895 $l=0.0150 $w=0.0120 $lvl=10
R1_35 A:28 A:29 2.19298 $l=0.0050 $w=0.0120 $lvl=10
R1_36 A:30 A:36 27.7339 $l=0.0210 $w=0.0120 $lvl=14
R1_37 A:31 A:32 63.5281 $a=0.00014400 $lvl=30
R1_38 A:31 A:33 14.5833 $l=0.0420 $w=0.0120 $lvl=9
R1_39 A:33 A:34 63.5281 $a=0.00014400 $lvl=30
R1_40 A:33 A:35 21.875 $l=0.0630 $w=0.0120 $lvl=9
R1_41 A:35 A:36 63.5281 $a=0.00014400 $lvl=30
R1_42 A:35 A:37 2.08333 $l=0.0060 $w=0.0120 $lvl=9
R1_43 A:36 A:43 27.7339 $l=0.0210 $w=0.0120 $lvl=14

*|NET VSS 0.000112001PF
*|P (VSS B 0 0.2100 0.0000) // $llx=0.2090 $lly=-0.0010 $urx=0.2110 $ury=0.0010 $lvl=33
*|I (MM10:SRC MM10 SRC B 0 0.3720 0.0300) // $llx=0.3720 $lly=0.0300 $urx=0.3720 $ury=0.0300 $lvl=16
*|I (MM9:SRC MM9 SRC B 0 0.3420 0.0300) // $llx=0.3420 $lly=0.0300 $urx=0.3420 $ury=0.0300 $lvl=16
*|I (MM7:SRC MM7 SRC B 0 0.2880 0.0300) // $llx=0.2880 $lly=0.0300 $urx=0.2880 $ury=0.0300 $lvl=16
*|I (MM4:SRC MM4 SRC B 0 0.2580 0.0300) // $llx=0.2580 $lly=0.0300 $urx=0.2580 $ury=0.0300 $lvl=16
*|I (MM3:BULK MM3 BULK B 0 0.2100 0.0300) // $llx=0.2100 $lly=0.0300 $urx=0.2100 $ury=0.0300 $lvl=20
*|I (MM3:SRC MM3 SRC B 0 0.2040 0.0300) // $llx=0.2040 $lly=0.0300 $urx=0.2040 $ury=0.0300 $lvl=16
*|I (MM17:SRC MM17 SRC B 0 0.1740 0.0300) // $llx=0.1740 $lly=0.0300 $urx=0.1740 $ury=0.0300 $lvl=16
*|I (MM14:SRC MM14 SRC B 0 0.1200 0.0300) // $llx=0.1200 $lly=0.0300 $urx=0.1200 $ury=0.0300 $lvl=16
*|I (MM13:SRC MM13 SRC B 0 0.0900 0.0300) // $llx=0.0900 $lly=0.0300 $urx=0.0900 $ury=0.0300 $lvl=16
*|I (MM0:SRC MM0 SRC B 0 0.0360 0.0300) // $llx=0.0360 $lly=0.0300 $urx=0.0360 $ury=0.0300 $lvl=16
*|I (MM3:BULK MM10 BULK B 0 0.3780 0.0300) // $llx=0.3780 $lly=0.0300 $urx=0.3780 $ury=0.0300 $lvl=20
*|I (MM3:BULK MM9 BULK B 0 0.3360 0.0300) // $llx=0.3360 $lly=0.0300 $urx=0.3360 $ury=0.0300 $lvl=20
*|I (MM3:BULK MM7 BULK B 0 0.2940 0.0300) // $llx=0.2940 $lly=0.0300 $urx=0.2940 $ury=0.0300 $lvl=20
*|I (MM3:BULK MM4 BULK B 0 0.2520 0.0300) // $llx=0.2520 $lly=0.0300 $urx=0.2520 $ury=0.0300 $lvl=20
*|I (MM3:BULK MM17 BULK B 0 0.1680 0.0300) // $llx=0.1680 $lly=0.0300 $urx=0.1680 $ury=0.0300 $lvl=20
*|I (MM3:BULK MM14 BULK B 0 0.1260 0.0300) // $llx=0.1260 $lly=0.0300 $urx=0.1260 $ury=0.0300 $lvl=20
*|I (MM3:BULK MM13 BULK B 0 0.0840 0.0300) // $llx=0.0840 $lly=0.0300 $urx=0.0840 $ury=0.0300 $lvl=20
*|I (MM3:BULK MM0 BULK B 0 0.0420 0.0300) // $llx=0.0420 $lly=0.0300 $urx=0.0420 $ury=0.0300 $lvl=20
*|S (VSS:12 0.0210 0.0150) // $llx=0.0110 $lly=0.0150 $urx=0.0310 $ury=0.0150 $lvl=15
*|S (VSS:13 0.1050 0.0150) // $llx=0.0950 $lly=0.0150 $urx=0.1150 $ury=0.0150 $lvl=15
*|S (VSS:14 0.1890 0.0150) // $llx=0.1790 $lly=0.0150 $urx=0.1990 $ury=0.0150 $lvl=15
*|S (VSS:15 0.2730 0.0150) // $llx=0.2630 $lly=0.0150 $urx=0.2830 $ury=0.0150 $lvl=15
*|S (VSS:16 0.3570 0.0150) // $llx=0.3470 $lly=0.0150 $urx=0.3670 $ury=0.0150 $lvl=15
*|S (VSS:17 0.0210 0.0000) // $llx=0.0150 $lly=-0.0060 $urx=0.0270 $ury=0.0060 $lvl=9
*|S (VSS:18 0.0630 0.0000) // $llx=0.0570 $lly=-0.0060 $urx=0.0690 $ury=0.0060 $lvl=9
*|S (VSS:19 0.0630 0.0000) // $llx=0.0570 $lly=-0.0060 $urx=0.0690 $ury=0.0060 $lvl=14
*|S (VSS:20 0.1050 0.0000) // $llx=0.0990 $lly=-0.0060 $urx=0.1110 $ury=0.0060 $lvl=9
*|S (VSS:21 0.1470 0.0000) // $llx=0.1410 $lly=-0.0060 $urx=0.1530 $ury=0.0060 $lvl=9
*|S (VSS:22 0.1470 0.0000) // $llx=0.1410 $lly=-0.0060 $urx=0.1530 $ury=0.0060 $lvl=14
*|S (VSS:23 0.1890 0.0000) // $llx=0.1830 $lly=-0.0060 $urx=0.1950 $ury=0.0060 $lvl=9
*|S (VSS:24 0.2310 0.0000) // $llx=0.2250 $lly=-0.0060 $urx=0.2370 $ury=0.0060 $lvl=9
*|S (VSS:25 0.2310 0.0000) // $llx=0.2250 $lly=-0.0060 $urx=0.2370 $ury=0.0060 $lvl=14
*|S (VSS:26 0.2730 0.0000) // $llx=0.2670 $lly=-0.0060 $urx=0.2790 $ury=0.0060 $lvl=9
*|S (VSS:27 0.3150 0.0000) // $llx=0.3090 $lly=-0.0060 $urx=0.3210 $ury=0.0060 $lvl=9
*|S (VSS:28 0.3150 0.0000) // $llx=0.3090 $lly=-0.0060 $urx=0.3210 $ury=0.0060 $lvl=14
*|S (VSS:29 0.3570 0.0000) // $llx=0.3510 $lly=-0.0060 $urx=0.3630 $ury=0.0060 $lvl=9
*|S (VSS:30 0.3570 0.0000) // $llx=0.3470 $lly=-0.0060 $urx=0.3670 $ury=0.0060 $lvl=13
*|S (VSS:31 0.3990 0.0000) // $llx=0.3930 $lly=-0.0060 $urx=0.4050 $ury=0.0060 $lvl=9
*|S (VSS:32 0.3990 0.0000) // $llx=0.3930 $lly=-0.0060 $urx=0.4050 $ury=0.0060 $lvl=14
*|S (VSS:33 0.0210 0.0450) // $llx=0.0110 $lly=0.0450 $urx=0.0310 $ury=0.0450 $lvl=15
*|S (VSS:34 0.1050 0.0450) // $llx=0.0950 $lly=0.0450 $urx=0.1150 $ury=0.0450 $lvl=15
*|S (VSS:35 0.1890 0.0450) // $llx=0.1790 $lly=0.0450 $urx=0.1990 $ury=0.0450 $lvl=15
*|S (VSS:36 0.2730 0.0450) // $llx=0.2630 $lly=0.0450 $urx=0.2830 $ury=0.0450 $lvl=15
*|S (VSS:37 0.4090 0.0600) // $llx=0.4090 $lly=-0.0100 $urx=0.4200 $ury=0.1300 $lvl=20
*|S (VSS:38 0.3570 0.0450) // $llx=0.3470 $lly=0.0450 $urx=0.3670 $ury=0.0450 $lvl=15
*|S (VSS:39 0.4550 0.0600) // $llx=0.4550 $lly=-0.0100 $urx=0.4550 $ury=0.1300 $lvl=20
*|S (VSS:40 -0.0090 0.0000) // $llx=-0.0090 $lly=-0.0060 $urx=-0.0090 $ury=0.0060 $lvl=9
*|S (VSS:41 0.2730 0.0000) // $llx=0.2630 $lly=-0.0060 $urx=0.2830 $ury=0.0060 $lvl=14
*|S (VSS:42 0.1890 0.0000) // $llx=0.1790 $lly=-0.0060 $urx=0.1990 $ury=0.0060 $lvl=14
*|S (VSS:43 0.1050 0.0000) // $llx=0.0950 $lly=-0.0060 $urx=0.1150 $ury=0.0060 $lvl=14
*|S (VSS:44 0.0210 0.0000) // $llx=0.0110 $lly=-0.0060 $urx=0.0310 $ury=0.0060 $lvl=14
*|S (VSS:45 -0.0090 0.0000) // $llx=-0.0090 $lly=-0.0060 $urx=-0.0090 $ury=0.0060 $lvl=14
*|S (VSS:46 0.4290 0.0000) // $llx=0.4290 $lly=-0.0060 $urx=0.4290 $ury=0.0060 $lvl=14
*|S (VSS:47 0.0210 0.0300) // $llx=0.0110 $lly=0.0300 $urx=0.0310 $ury=0.0300 $lvl=15
*|S (VSS:48 0.1050 0.0300) // $llx=0.0950 $lly=0.0300 $urx=0.1150 $ury=0.0300 $lvl=15
*|S (VSS:49 0.1890 0.0300) // $llx=0.1790 $lly=0.0300 $urx=0.1990 $ury=0.0300 $lvl=15
*|S (VSS:50 0.2730 0.0300) // $llx=0.2630 $lly=0.0300 $urx=0.2830 $ury=0.0300 $lvl=15
*|S (VSS:51 0.3570 0.0300) // $llx=0.3470 $lly=0.0300 $urx=0.3670 $ury=0.0300 $lvl=15
*|S (VSS:52 0.4290 0.0000) // $llx=0.4290 $lly=-0.0060 $urx=0.4290 $ury=0.0060 $lvl=9
C2_1 MM3:BULK A 4.25986e-19
C2_2 VSS:12 A 2.41857e-19
C2_3 VSS:30 A 1.00765e-19
C2_4 VSS:33 A 4.3527e-20
C2_5 VSS:40 A 1.98027e-18
C2_6 VSS:44 A 3.44814e-19
C2_7 VSS:30 A:12 4.41316e-20
C2_8 VSS:30 A:17 4.30793e-20
C2_9 VSS:30 A:22 4.30793e-20
C2_10 VSS:30 A:27 4.30793e-20
C2_11 VSS:30 A:30 7.57903e-21
C2_12 VSS:30 A:32 3.78951e-21
C2_13 VSS:30 A:34 3.78951e-21
C2_14 MM3:BULK A:37 7.01368e-19
C2_15 VSS:30 A:37 2.22565e-20
C2_16 VSS:40 A:37 1.15213e-18
C2_17 MM3:BULK A:38 2.8413e-19
Cg2_18 MM3:BULK 0 1.31627e-17
Cg2_19 VSS:12 0 2.656e-19
Cg2_20 VSS:13 0 2.73586e-19
Cg2_21 VSS:14 0 2.656e-19
Cg2_22 VSS:15 0 2.73586e-19
Cg2_23 VSS:16 0 2.35969e-19
Cg2_24 VSS:30 0 3.8616e-18
Cg2_25 VSS:33 0 5.17687e-19
Cg2_26 VSS:34 0 6.21225e-19
Cg2_27 VSS:35 0 6.21225e-19
Cg2_28 VSS:36 0 6.21225e-19
Cg2_29 VSS:37 0 1.05618e-18
Cg2_30 VSS:38 0 6.21225e-19
Cg2_31 VSS:40 0 1.14283e-17
Cg2_32 VSS:41 0 3.26929e-19
Cg2_33 VSS:42 0 3.17209e-19
Cg2_34 VSS:43 0 3.30751e-19
Cg2_35 VSS:44 0 6.02945e-19
R2_1 VSS VSS:24 7.29167 $l=0.0210 $w=0.0120 $lvl=9
R2_2 VSS VSS:23 7.29167 $l=0.0210 $w=0.0120 $lvl=9
R2_3 MM10:SRC VSS:38 2.0 $l=0.0150 $w=0.0075 $lvl=16
R2_4 MM10:SRC VSS:16 2.0 $l=0.0150 $w=0.0075 $lvl=16
R2_5 MM10:SRC VSS:51 1.0 $l=0.0150 $w=0.0150 $lvl=16
R2_6 MM9:SRC VSS:38 2.0 $l=0.0150 $w=0.0075 $lvl=16
R2_7 MM9:SRC VSS:16 2.0 $l=0.0150 $w=0.0075 $lvl=16
R2_8 MM9:SRC VSS:51 1.0 $l=0.0150 $w=0.0150 $lvl=16
R2_9 MM7:SRC VSS:36 2.0 $l=0.0150 $w=0.0075 $lvl=16
R2_10 MM7:SRC VSS:15 2.0 $l=0.0150 $w=0.0075 $lvl=16
R2_11 MM7:SRC VSS:50 1.0 $l=0.0150 $w=0.0150 $lvl=16
R2_12 MM4:SRC VSS:36 2.0 $l=0.0150 $w=0.0075 $lvl=16
R2_13 MM4:SRC VSS:15 2.0 $l=0.0150 $w=0.0075 $lvl=16
R2_14 MM4:SRC VSS:50 1.0 $l=0.0150 $w=0.0150 $lvl=16
R2_15 MM3:BULK VSS:37 0.356491 $l=0.1990 $w=0.1400 $lvl=20
R2_16 MM3:SRC VSS:35 2.0 $l=0.0150 $w=0.0075 $lvl=16
R2_17 MM3:SRC VSS:14 2.0 $l=0.0150 $w=0.0075 $lvl=16
R2_18 MM3:SRC VSS:49 1.0 $l=0.0150 $w=0.0150 $lvl=16
R2_19 MM17:SRC VSS:35 2.0 $l=0.0150 $w=0.0075 $lvl=16
R2_20 MM17:SRC VSS:14 2.0 $l=0.0150 $w=0.0075 $lvl=16
R2_21 MM17:SRC VSS:49 1.0 $l=0.0150 $w=0.0150 $lvl=16
R2_22 MM14:SRC VSS:34 2.0 $l=0.0150 $w=0.0075 $lvl=16
R2_23 MM14:SRC VSS:13 2.0 $l=0.0150 $w=0.0075 $lvl=16
R2_24 MM14:SRC VSS:48 1.0 $l=0.0150 $w=0.0150 $lvl=16
R2_25 MM13:SRC VSS:34 2.0 $l=0.0150 $w=0.0075 $lvl=16
R2_26 MM13:SRC VSS:13 2.0 $l=0.0150 $w=0.0075 $lvl=16
R2_27 MM13:SRC VSS:48 1.0 $l=0.0150 $w=0.0150 $lvl=16
R2_28 MM0:SRC VSS:33 2.0 $l=0.0150 $w=0.0075 $lvl=16
R2_29 MM0:SRC VSS:12 2.0 $l=0.0150 $w=0.0075 $lvl=16
R2_30 MM0:SRC VSS:47 1.0 $l=0.0150 $w=0.0150 $lvl=16
R2_31 VSS:12 VSS:47 2.73284 $l=0.0150 $w=0.0225 $lvl=16
R2_32 VSS:12 VSS:44 8.89907 $l=0.0150 $w=0.0200 $lvl=13
R2_33 VSS:13 VSS:48 1.87763 $l=0.0150 $w=0.0250 $lvl=16
R2_34 VSS:13 VSS:43 8.89907 $l=0.0150 $w=0.0200 $lvl=13
R2_35 VSS:14 VSS:49 1.87763 $l=0.0150 $w=0.0250 $lvl=16
R2_36 VSS:14 VSS:42 8.89907 $l=0.0150 $w=0.0200 $lvl=13
R2_37 VSS:15 VSS:50 1.87763 $l=0.0150 $w=0.0250 $lvl=16
R2_38 VSS:15 VSS:41 8.89907 $l=0.0150 $w=0.0200 $lvl=13
R2_39 VSS:16 VSS:51 1.87763 $l=0.0150 $w=0.0250 $lvl=16
R2_40 VSS:16 VSS:30 8.89907 $l=0.0150 $w=0.0200 $lvl=13
R2_41 VSS:17 VSS:40 10.4167 $l=0.0300 $w=0.0120 $lvl=9
R2_42 VSS:17 VSS:18 14.5833 $l=0.0420 $w=0.0120 $lvl=9
R2_43 VSS:17 VSS:44 31.764 $a=0.00028800 $lvl=31
R2_44 VSS:18 VSS:19 63.5281 $a=0.00014400 $lvl=30
R2_45 VSS:18 VSS:20 14.5833 $l=0.0420 $w=0.0120 $lvl=9
R2_46 VSS:19 VSS:44 50.1851 $l=0.0420 $w=0.0120 $lvl=14
R2_47 VSS:19 VSS:43 50.1851 $l=0.0420 $w=0.0120 $lvl=14
R2_48 VSS:20 VSS:21 14.5833 $l=0.0420 $w=0.0120 $lvl=9
R2_49 VSS:20 VSS:43 31.764 $a=0.00028800 $lvl=31
R2_50 VSS:21 VSS:22 63.5281 $a=0.00014400 $lvl=30
R2_51 VSS:21 VSS:23 14.5833 $l=0.0420 $w=0.0120 $lvl=9
R2_52 VSS:22 VSS:43 50.1851 $l=0.0420 $w=0.0120 $lvl=14
R2_53 VSS:22 VSS:42 50.1851 $l=0.0420 $w=0.0120 $lvl=14
R2_54 VSS:23 VSS:42 31.764 $a=0.00028800 $lvl=31
R2_55 VSS:24 VSS:25 63.5281 $a=0.00014400 $lvl=30
R2_56 VSS:24 VSS:26 14.5833 $l=0.0420 $w=0.0120 $lvl=9
R2_57 VSS:25 VSS:42 50.1851 $l=0.0420 $w=0.0120 $lvl=14
R2_58 VSS:25 VSS:41 50.1851 $l=0.0420 $w=0.0120 $lvl=14
R2_59 VSS:26 VSS:27 14.5833 $l=0.0420 $w=0.0120 $lvl=9
R2_60 VSS:26 VSS:41 31.764 $a=0.00028800 $lvl=31
R2_61 VSS:27 VSS:28 63.5281 $a=0.00014400 $lvl=30
R2_62 VSS:27 VSS:29 14.5833 $l=0.0420 $w=0.0120 $lvl=9
R2_63 VSS:28 VSS:41 50.1851 $l=0.0420 $w=0.0120 $lvl=14
R2_64 VSS:28 VSS:30 50.1851 $l=0.0420 $w=0.0120 $lvl=14
R2_65 VSS:29 VSS:30 31.764 $a=0.00028800 $lvl=31
R2_66 VSS:29 VSS:31 14.5833 $l=0.0420 $w=0.0120 $lvl=9
R2_67 VSS:30 VSS:32 50.1851 $l=0.0420 $w=0.0120 $lvl=14
R2_68 VSS:31 VSS:32 63.5281 $a=0.00014400 $lvl=30
R2_69 VSS:31 VSS:52 10.4167 $l=0.0300 $w=0.0120 $lvl=9
R2_70 VSS:32 VSS:46 39.6198 $l=0.0300 $w=0.0120 $lvl=14
R2_71 VSS:33 VSS:47 2.73284 $l=0.0150 $w=0.0225 $lvl=16
R2_72 VSS:34 VSS:48 1.87763 $l=0.0150 $w=0.0250 $lvl=16
R2_73 VSS:35 VSS:49 1.87763 $l=0.0150 $w=0.0250 $lvl=16
R2_74 VSS:36 VSS:50 1.87763 $l=0.0150 $w=0.0250 $lvl=16
R2_75 VSS:37 VSS:39 0.289286 $l=0.0460 $w=0.1400 $lvl=20
R2_76 VSS:38 VSS:51 1.87763 $l=0.0150 $w=0.0250 $lvl=16
R2_77 VSS:44 VSS:45 34.3372 $l=0.0300 $w=0.0120 $lvl=14
R2_78 MM3:SRC MM3:BULK 0.01 $l=0.0060 $w=100.0000 $lvl=0

*|NET VDD 0.000126251PF
*|P (VDD B 0 0.2180 0.1040) // $llx=0.2170 $lly=0.1030 $urx=0.2190 $ury=0.1030 $lvl=19
*|P (VDD_1 B 0 0.2100 0.1200) // $llx=0.2090 $lly=0.1190 $urx=0.2110 $ury=0.1210 $lvl=33
*|I (MM11:BULK MM11 BULK B 0 0.3780 0.0900) // $llx=0.3780 $lly=0.0900 $urx=0.3780 $ury=0.0900 $lvl=19
*|I (MM11:SRC MM11 SRC B 0 0.3720 0.0900) // $llx=0.3720 $lly=0.0900 $urx=0.3720 $ury=0.0900 $lvl=17
*|I (MM8:BULK MM8 BULK B 0 0.3360 0.0900) // $llx=0.3360 $lly=0.0900 $urx=0.3360 $ury=0.0900 $lvl=19
*|I (MM8:SRC MM8 SRC B 0 0.3420 0.0900) // $llx=0.3420 $lly=0.0900 $urx=0.3420 $ury=0.0900 $lvl=17
*|I (MM6:BULK MM6 BULK B 0 0.2940 0.0900) // $llx=0.2940 $lly=0.0900 $urx=0.2940 $ury=0.0900 $lvl=19
*|I (MM6:SRC MM6 SRC B 0 0.2880 0.0900) // $llx=0.2880 $lly=0.0900 $urx=0.2880 $ury=0.0900 $lvl=17
*|I (MM5:BULK MM5 BULK B 0 0.2520 0.0900) // $llx=0.2520 $lly=0.0900 $urx=0.2520 $ury=0.0900 $lvl=19
*|I (MM5:SRC MM5 SRC B 0 0.2580 0.0900) // $llx=0.2580 $lly=0.0900 $urx=0.2580 $ury=0.0900 $lvl=17
*|I (MM2:BULK MM2 BULK B 0 0.2100 0.0900) // $llx=0.2100 $lly=0.0900 $urx=0.2100 $ury=0.0900 $lvl=19
*|I (MM2:SRC MM2 SRC B 0 0.2040 0.0900) // $llx=0.2040 $lly=0.0900 $urx=0.2040 $ury=0.0900 $lvl=17
*|I (MM16:BULK MM16 BULK B 0 0.1680 0.0900) // $llx=0.1680 $lly=0.0900 $urx=0.1680 $ury=0.0900 $lvl=19
*|I (MM16:SRC MM16 SRC B 0 0.1740 0.0900) // $llx=0.1740 $lly=0.0900 $urx=0.1740 $ury=0.0900 $lvl=17
*|I (MM15:BULK MM15 BULK B 0 0.1260 0.0900) // $llx=0.1260 $lly=0.0900 $urx=0.1260 $ury=0.0900 $lvl=19
*|I (MM15:SRC MM15 SRC B 0 0.1200 0.0900) // $llx=0.1200 $lly=0.0900 $urx=0.1200 $ury=0.0900 $lvl=17
*|I (MM12:BULK MM12 BULK B 0 0.0840 0.0900) // $llx=0.0840 $lly=0.0900 $urx=0.0840 $ury=0.0900 $lvl=19
*|I (MM12:SRC MM12 SRC B 0 0.0900 0.0900) // $llx=0.0900 $lly=0.0900 $urx=0.0900 $ury=0.0900 $lvl=17
*|I (MM1:BULK MM1 BULK B 0 0.0420 0.0900) // $llx=0.0420 $lly=0.0900 $urx=0.0420 $ury=0.0900 $lvl=19
*|I (MM1:SRC MM1 SRC B 0 0.0360 0.0900) // $llx=0.0360 $lly=0.0900 $urx=0.0360 $ury=0.0900 $lvl=17
*|S (VDD:20 0.0210 0.0750) // $llx=0.0110 $lly=0.0750 $urx=0.0310 $ury=0.0750 $lvl=15
*|S (VDD:21 0.1050 0.0750) // $llx=0.0950 $lly=0.0750 $urx=0.1150 $ury=0.0750 $lvl=15
*|S (VDD:22 0.1890 0.0750) // $llx=0.1790 $lly=0.0750 $urx=0.1990 $ury=0.0750 $lvl=15
*|S (VDD:23 0.2730 0.0750) // $llx=0.2630 $lly=0.0750 $urx=0.2830 $ury=0.0750 $lvl=15
*|S (VDD:24 0.3570 0.0750) // $llx=0.3470 $lly=0.0750 $urx=0.3670 $ury=0.0750 $lvl=15
*|S (VDD:25 0.0210 0.1200) // $llx=0.0150 $lly=0.1140 $urx=0.0270 $ury=0.1260 $lvl=9
*|S (VDD:26 0.0630 0.1200) // $llx=0.0570 $lly=0.1140 $urx=0.0690 $ury=0.1260 $lvl=9
*|S (VDD:27 0.0630 0.1200) // $llx=0.0570 $lly=0.1140 $urx=0.0690 $ury=0.1260 $lvl=14
*|S (VDD:28 0.1050 0.1200) // $llx=0.0990 $lly=0.1140 $urx=0.1110 $ury=0.1260 $lvl=9
*|S (VDD:29 0.1470 0.1200) // $llx=0.1410 $lly=0.1140 $urx=0.1530 $ury=0.1260 $lvl=9
*|S (VDD:30 0.1470 0.1200) // $llx=0.1410 $lly=0.1140 $urx=0.1530 $ury=0.1260 $lvl=14
*|S (VDD:31 0.1890 0.1200) // $llx=0.1830 $lly=0.1140 $urx=0.1950 $ury=0.1260 $lvl=9
*|S (VDD:32 0.2310 0.1200) // $llx=0.2250 $lly=0.1140 $urx=0.2370 $ury=0.1260 $lvl=9
*|S (VDD:33 0.2310 0.1200) // $llx=0.2250 $lly=0.1140 $urx=0.2370 $ury=0.1260 $lvl=14
*|S (VDD:34 0.2730 0.1200) // $llx=0.2670 $lly=0.1140 $urx=0.2790 $ury=0.1260 $lvl=9
*|S (VDD:35 0.3150 0.1200) // $llx=0.3090 $lly=0.1140 $urx=0.3210 $ury=0.1260 $lvl=9
*|S (VDD:36 0.3150 0.1200) // $llx=0.3090 $lly=0.1140 $urx=0.3210 $ury=0.1260 $lvl=14
*|S (VDD:37 0.3570 0.1200) // $llx=0.3510 $lly=0.1140 $urx=0.3630 $ury=0.1260 $lvl=9
*|S (VDD:38 0.3570 0.1200) // $llx=0.3470 $lly=0.1140 $urx=0.3670 $ury=0.1260 $lvl=13
*|S (VDD:39 0.3990 0.1200) // $llx=0.3930 $lly=0.1140 $urx=0.4050 $ury=0.1260 $lvl=9
*|S (VDD:40 0.3990 0.1200) // $llx=0.3930 $lly=0.1140 $urx=0.4050 $ury=0.1260 $lvl=14
*|S (VDD:41 0.0360 0.0900) // $llx=0.0360 $lly=0.0600 $urx=0.0360 $ury=0.1200 $lvl=18
*|S (VDD:42 0.0210 0.1050) // $llx=0.0110 $lly=0.1050 $urx=0.0310 $ury=0.1050 $lvl=15
*|S (VDD:43 0.0055 0.0900) // $llx=0.0000 $lly=0.0600 $urx=0.0110 $ury=0.1200 $lvl=18
*|S (VDD:44 0.0780 0.0900) // $llx=0.0780 $lly=0.0600 $urx=0.0780 $ury=0.1200 $lvl=18
*|S (VDD:45 0.0480 0.0600) // $llx=0.0480 $lly=0.0600 $urx=0.0480 $ury=0.1200 $lvl=19
*|S (VDD:46 0.1200 0.0900) // $llx=0.1200 $lly=0.0600 $urx=0.1200 $ury=0.1200 $lvl=18
*|S (VDD:47 0.0900 0.0600) // $llx=0.0900 $lly=0.0600 $urx=0.0900 $ury=0.1200 $lvl=19
*|S (VDD:48 0.1050 0.1050) // $llx=0.0950 $lly=0.1050 $urx=0.1150 $ury=0.1050 $lvl=15
*|S (VDD:49 0.1620 0.0900) // $llx=0.1620 $lly=0.0600 $urx=0.1620 $ury=0.1200 $lvl=18
*|S (VDD:50 0.1320 0.0600) // $llx=0.1320 $lly=0.0600 $urx=0.1320 $ury=0.1200 $lvl=19
*|S (VDD:51 0.1740 0.0900) // $llx=0.1740 $lly=0.0600 $urx=0.1740 $ury=0.1200 $lvl=18
*|S (VDD:52 0.1890 0.1050) // $llx=0.1790 $lly=0.1050 $urx=0.1990 $ury=0.1050 $lvl=15
*|S (VDD:53 0.2880 0.0900) // $llx=0.2880 $lly=0.0600 $urx=0.2880 $ury=0.1200 $lvl=18
*|S (VDD:54 0.2580 0.0600) // $llx=0.2580 $lly=0.0600 $urx=0.2580 $ury=0.1200 $lvl=19
*|S (VDD:55 0.2730 0.1050) // $llx=0.2630 $lly=0.1050 $urx=0.2830 $ury=0.1050 $lvl=15
*|S (VDD:56 0.3300 0.0900) // $llx=0.3300 $lly=0.0600 $urx=0.3300 $ury=0.1200 $lvl=18
*|S (VDD:57 0.3000 0.0600) // $llx=0.3000 $lly=0.0600 $urx=0.3000 $ury=0.1200 $lvl=19
*|S (VDD:58 0.3420 0.0900) // $llx=0.3420 $lly=0.0600 $urx=0.3420 $ury=0.1200 $lvl=18
*|S (VDD:59 0.3570 0.1050) // $llx=0.3470 $lly=0.1050 $urx=0.3670 $ury=0.1050 $lvl=15
*|S (VDD:60 0.4090 0.0900) // $llx=0.4090 $lly=0.0600 $urx=0.4200 $ury=0.1200 $lvl=18
*|S (VDD:61 -0.0090 0.1200) // $llx=-0.0090 $lly=0.1140 $urx=-0.0090 $ury=0.1260 $lvl=9
*|S (VDD:62 0.2730 0.1200) // $llx=0.2630 $lly=0.1140 $urx=0.2830 $ury=0.1260 $lvl=14
*|S (VDD:63 0.1890 0.1200) // $llx=0.1790 $lly=0.1140 $urx=0.1990 $ury=0.1260 $lvl=14
*|S (VDD:64 0.1050 0.1200) // $llx=0.0950 $lly=0.1140 $urx=0.1150 $ury=0.1260 $lvl=14
*|S (VDD:65 0.0210 0.1200) // $llx=0.0110 $lly=0.1140 $urx=0.0310 $ury=0.1260 $lvl=14
*|S (VDD:66 -0.0090 0.1200) // $llx=-0.0090 $lly=0.1140 $urx=-0.0090 $ury=0.1260 $lvl=14
*|S (VDD:67 0.4290 0.1200) // $llx=0.4290 $lly=0.1140 $urx=0.4290 $ury=0.1260 $lvl=14
*|S (VDD:68 0.0210 0.0900) // $llx=0.0110 $lly=0.0900 $urx=0.0310 $ury=0.0900 $lvl=15
*|S (VDD:69 0.1050 0.0900) // $llx=0.0950 $lly=0.0900 $urx=0.1150 $ury=0.0900 $lvl=15
*|S (VDD:70 0.1890 0.0900) // $llx=0.1790 $lly=0.0900 $urx=0.1990 $ury=0.0900 $lvl=15
*|S (VDD:71 0.2730 0.0900) // $llx=0.2630 $lly=0.0900 $urx=0.2830 $ury=0.0900 $lvl=15
*|S (VDD:72 0.3570 0.0900) // $llx=0.3470 $lly=0.0900 $urx=0.3670 $ury=0.0900 $lvl=15
*|S (VDD:73 0.4290 0.1200) // $llx=0.4290 $lly=0.1140 $urx=0.4290 $ury=0.1260 $lvl=9
C3_1 VDD:38 A:12 5.88554e-20
C3_2 VDD:61 A:12 6.24155e-21
C3_3 VDD:38 A:13 2.29783e-19
C3_4 VDD:61 A:13 4.72749e-20
C3_5 VDD:38 A:14 1.49359e-19
C3_6 VDD:61 A:14 4.21667e-20
C3_7 VDD:38 A:17 5.90745e-20
C3_8 VDD:38 A:18 2.25945e-19
C3_9 VDD:61 A:18 3.83923e-20
C3_10 VDD:38 A:19 1.49656e-19
C3_11 VDD:61 A:19 4.29081e-20
C3_12 VDD:38 A:22 5.90745e-20
C3_13 VDD:38 A:23 2.25945e-19
C3_14 VDD:61 A:23 3.83923e-20
C3_15 VDD:38 A:24 1.49656e-19
C3_16 VDD:61 A:24 4.29081e-20
C3_17 VDD:38 A:27 5.97128e-20
C3_18 VDD:38 A:28 2.25945e-19
C3_19 VDD:61 A:28 3.83923e-20
C3_20 VDD:38 A:29 1.49656e-19
C3_21 VDD:61 A:29 4.29081e-20
C3_22 VDD:38 A:30 5.10748e-19
C3_23 VDD:48 A:30 2.05904e-19
C3_24 VDD:50 A:30 1.49311e-20
C3_25 VDD:38 A:32 2.65758e-19
C3_26 VDD:42 A:32 2.10425e-19
C3_27 VDD:61 A:32 1.86733e-20
C3_28 VDD:38 A:34 2.53314e-19
C3_29 VDD:41 A:37 3.46102e-20
C3_30 VDD:44 A:37 8.9508e-20
C3_31 VDD:45 A:37 9.07865e-20
C3_32 VDD:46 A:37 8.90499e-20
C3_33 VDD:47 A:37 8.41569e-21
C3_34 VDD:49 A:37 1.25558e-19
C3_35 VDD:50 A:37 8.41569e-21
C3_36 VDD:61 A:37 1.15213e-18
C3_37 VDD:20 A:38 1.0966e-19
C3_38 VDD:41 A:38 2.79827e-20
C3_39 VDD:42 A:38 1.13978e-19
C3_40 VDD:43 A:38 3.97424e-20
C3_41 VDD:61 A:38 1.98027e-18
C3_42 VDD:65 A:38 3.44814e-19
C3_43 MM11:BULK MM3:BULK 1.64071e-20
C3_44 VDD:20 MM3:BULK 8.02965e-19
C3_45 VDD:21 MM3:BULK 8.02594e-19
C3_46 VDD:22 MM3:BULK 8.02965e-19
C3_47 VDD:23 MM3:BULK 8.02594e-19
C3_48 VDD:58 MM3:BULK 6.9266e-20
C3_49 VDD:61 MM3:BULK 2.29699e-18
C3_50 VDD:62 MM3:BULK 1.31876e-18
C3_51 VDD:63 MM3:BULK 1.31846e-18
C3_52 VDD:64 MM3:BULK 1.31876e-18
C3_53 VDD:65 MM3:BULK 1.31846e-18
C3_54 VDD:38 VSS:30 3.31165e-20
C3_55 VDD:43 VSS:30 1.12021e-19
C3_56 VDD:61 VSS:30 7.10305e-20
C3_57 VDD:65 VSS:30 6.86412e-21
C3_58 VDD:38 VSS:40 3.37305e-20
C3_59 VDD:61 VSS:40 8.06648e-19
Cg3_60 VDD 0 1.28489e-18
Cg3_61 MM11:BULK 0 2.52598e-18
Cg3_62 MM2:BULK 0 9.25672e-19
Cg3_63 VDD:20 0 9.19208e-19
Cg3_64 VDD:21 0 2.73586e-19
Cg3_65 VDD:22 0 2.656e-19
Cg3_66 VDD:23 0 2.73586e-19
Cg3_67 VDD:24 0 2.35969e-19
Cg3_68 VDD:38 0 2.07785e-17
Cg3_69 VDD:41 0 2.58844e-19
Cg3_70 VDD:42 0 5.17687e-19
Cg3_71 VDD:43 0 1.72222e-18
Cg3_72 VDD:44 0 3.10612e-19
Cg3_73 VDD:45 0 1.91242e-18
Cg3_74 VDD:46 0 3.10612e-19
Cg3_75 VDD:47 0 1.91226e-18
Cg3_76 VDD:48 0 6.21225e-19
Cg3_77 VDD:49 0 3.10612e-19
Cg3_78 VDD:50 0 1.91016e-18
Cg3_79 VDD:51 0 2.21756e-18
Cg3_80 VDD:52 0 6.21225e-19
Cg3_81 VDD:53 0 3.10612e-19
Cg3_82 VDD:54 0 1.88742e-18
Cg3_83 VDD:55 0 6.21225e-19
Cg3_84 VDD:56 0 3.10612e-19
Cg3_85 VDD:57 0 1.85504e-18
Cg3_86 VDD:58 0 1.79785e-18
Cg3_87 VDD:59 0 6.21225e-19
Cg3_88 VDD:60 0 2.10096e-18
Cg3_89 VDD:61 0 1.13978e-17
Cg3_90 VDD:62 0 7.61765e-19
Cg3_91 VDD:63 0 7.34254e-19
Cg3_92 VDD:64 0 7.50499e-19
Cg3_93 VDD:65 0 7.81873e-19
R3_1 VDD MM2:BULK 0.001 $l=0.0161 $w=10.0000 $lvl=18
R3_2 VDD MM5:BULK 0.45 $l=0.0340 $w=0.0600 $lvl=18
R3_3 MM11:BULK VDD:58 0.6 $l=0.0360 $w=0.0600 $lvl=18
R3_4 MM11:BULK VDD:60 0.545216 $l=0.0310 $w=0.0600 $lvl=18
R3_5 MM11:SRC VDD:59 2.0 $l=0.0150 $w=0.0075 $lvl=17
R3_6 MM11:SRC VDD:24 2.0 $l=0.0150 $w=0.0075 $lvl=17
R3_7 MM11:SRC VDD:72 1.0 $l=0.0150 $w=0.0150 $lvl=17
R3_8 MM8:BULK VDD:58 0.1 $l=0.0060 $w=0.0600 $lvl=18
R3_9 MM8:BULK VDD:56 0.1 $l=0.0060 $w=0.0600 $lvl=18
R3_10 MM8:SRC VDD:59 2.0 $l=0.0150 $w=0.0075 $lvl=17
R3_11 MM8:SRC VDD:24 2.0 $l=0.0150 $w=0.0075 $lvl=17
R3_12 MM8:SRC VDD:72 1.0 $l=0.0150 $w=0.0150 $lvl=17
R3_13 MM6:BULK VDD:57 0.1 $l=0.0060 $w=0.0600 $lvl=18
R3_14 MM6:BULK VDD:53 0.1 $l=0.0060 $w=0.0600 $lvl=18
R3_15 MM6:SRC VDD:55 2.0 $l=0.0150 $w=0.0075 $lvl=17
R3_16 MM6:SRC VDD:23 2.0 $l=0.0150 $w=0.0075 $lvl=17
R3_17 MM6:SRC VDD:71 1.0 $l=0.0150 $w=0.0150 $lvl=17
R3_18 MM5:BULK VDD:54 0.1 $l=0.0060 $w=0.0600 $lvl=18
R3_19 MM5:SRC VDD:55 2.0 $l=0.0150 $w=0.0075 $lvl=17
R3_20 MM5:SRC VDD:23 2.0 $l=0.0150 $w=0.0075 $lvl=17
R3_21 MM5:SRC VDD:71 1.0 $l=0.0150 $w=0.0150 $lvl=17
R3_22 MM2:BULK VDD:51 0.55 $l=0.0360 $w=0.0600 $lvl=19
R3_23 MM2:SRC VDD:52 2.0 $l=0.0150 $w=0.0075 $lvl=17
R3_24 MM2:SRC VDD:22 2.0 $l=0.0150 $w=0.0075 $lvl=17
R3_25 MM2:SRC VDD:70 1.0 $l=0.0150 $w=0.0150 $lvl=17
R3_26 MM16:BULK VDD:51 0.1 $l=0.0060 $w=0.0600 $lvl=18
R3_27 MM16:BULK VDD:49 0.1 $l=0.0060 $w=0.0600 $lvl=18
R3_28 MM16:SRC VDD:52 2.0 $l=0.0150 $w=0.0075 $lvl=17
R3_29 MM16:SRC VDD:22 2.0 $l=0.0150 $w=0.0075 $lvl=17
R3_30 MM16:SRC VDD:70 1.0 $l=0.0150 $w=0.0150 $lvl=17
R3_31 MM15:BULK VDD:50 0.1 $l=0.0060 $w=0.0600 $lvl=18
R3_32 MM15:BULK VDD:46 0.1 $l=0.0060 $w=0.0600 $lvl=18
R3_33 MM15:SRC VDD:48 2.0 $l=0.0150 $w=0.0075 $lvl=17