*
*|DSPF 1.3
*|DESIGN BUFx8
*|DATE "Tue Oct 15 21:09:54 2024"
*|VENDOR "Synopsys"
*|PROGRAM "StarRC"
*|VERSION "V-2023.12-SP5"
*|DIVIDER .
*|DELIMITER :
**FORMAT SPF
*

** COMMENTS

** OPERATING_TEMPERATURE 25
** GLOBAL_TEMPERATURE 25
** 
** TCAD_GRD_FILE /home/gtcad/ctsai314/ITF_Modification/0_reference/3nm_FF_noBPR.nxtgrd
**   TCAD_TIME_STAMP Tue Sep 3 21:56:12 2024
**   TCADGRD_VERSION 89

.SUBCKT BUFx8 A VDD VSS Y

*|GROUND_NET 0

*LAYER_MAP

*0 SUBSTRATE
*1 m9    ITF=M9
*2 m8    ITF=M8
*3 m7    ITF=M7
*4 m6    ITF=M6
*5 m5    ITF=M5
*6 m4    ITF=M4
*7 m3    ITF=M3
*8 m2    ITF=M2
*9 m1    ITF=M1
*10 fpoly    ITF=Gate
*11 ngate    ITF=Gate
*12 pgate    ITF=Gate
*13 lisd    ITF=LISD
*14 lig    ITF=LIG
*15 sdt    ITF=SDT
*16 nsd    ITF=Active
*17 psd    ITF=Active
*18 pselect    ITF=Active
*19 well    ITF=Active
*20 sub    ITF=Active
*21 nselect    ITF=Active
*22 v8    ITF=V8
*23 v7    ITF=V7
*24 v6    ITF=V6
*25 v5    ITF=V5
*26 v4    ITF=V4
*27 v3    ITF=V3
*28 v2    ITF=V2
*29 v1    ITF=V1
*30 v0lig    ITF=V0LIG
*31 v0lisd    ITF=V0LISD
*32 well_pin    ITF=Active
*33 M1_pin    ITF=M1
*34 M2_pin    ITF=M2
*35 M3_pin    ITF=M3
*36 M4_pin    ITF=M4
*37 M5_pin    ITF=M5
*38 M6_pin    ITF=M6
*39 M7_pin    ITF=M7
*40 M8_pin    ITF=M8
*41 M9_pin    ITF=M9

*|NET A 7.0952e-05PF
*|P (A B 0 0.0210 0.0600) // $llx=0.0200 $lly=0.0590 $urx=0.0220 $ury=0.0610 $lvl=33
*|I (MM28:GATE MM28 GATE I 3.6e-19 0.2940 0.0300) // $llx=0.2940 $lly=0.0300 $urx=0.2940 $ury=0.0300 $lvl=11
*|I (MM27:GATE MM27 GATE I 3.6e-19 0.2520 0.0300) // $llx=0.2520 $lly=0.0300 $urx=0.2520 $ury=0.0300 $lvl=11
*|I (MM24:GATE MM24 GATE I 3.6e-19 0.2100 0.0300) // $llx=0.2100 $lly=0.0300 $urx=0.2100 $ury=0.0300 $lvl=11
*|I (MM23:GATE MM23 GATE I 3.6e-19 0.1680 0.0300) // $llx=0.1680 $lly=0.0300 $urx=0.1680 $ury=0.0300 $lvl=11
*|I (MM20:GATE MM20 GATE I 3.6e-19 0.1260 0.0300) // $llx=0.1260 $lly=0.0300 $urx=0.1260 $ury=0.0300 $lvl=11
*|I (MM19:GATE MM19 GATE I 3.6e-19 0.0840 0.0300) // $llx=0.0840 $lly=0.0300 $urx=0.0840 $ury=0.0300 $lvl=11
*|I (MM0:GATE MM0 GATE I 3.6e-19 0.0420 0.0300) // $llx=0.0420 $lly=0.0300 $urx=0.0420 $ury=0.0300 $lvl=11
*|I (MM30:GATE MM30 GATE I 3.6e-19 0.3360 0.0900) // $llx=0.3360 $lly=0.0900 $urx=0.3360 $ury=0.0900 $lvl=12
*|I (MM29:GATE MM29 GATE I 3.6e-19 0.2940 0.0900) // $llx=0.2940 $lly=0.0900 $urx=0.2940 $ury=0.0900 $lvl=12
*|I (MM26:GATE MM26 GATE I 3.6e-19 0.2520 0.0900) // $llx=0.2520 $lly=0.0900 $urx=0.2520 $ury=0.0900 $lvl=12
*|I (MM25:GATE MM25 GATE I 3.6e-19 0.2100 0.0900) // $llx=0.2100 $lly=0.0900 $urx=0.2100 $ury=0.0900 $lvl=12
*|I (MM22:GATE MM22 GATE I 3.6e-19 0.1680 0.0900) // $llx=0.1680 $lly=0.0900 $urx=0.1680 $ury=0.0900 $lvl=12
*|I (MM21:GATE MM21 GATE I 3.6e-19 0.1260 0.0900) // $llx=0.1260 $lly=0.0900 $urx=0.1260 $ury=0.0900 $lvl=12
*|I (MM18:GATE MM18 GATE I 3.6e-19 0.0840 0.0900) // $llx=0.0840 $lly=0.0900 $urx=0.0840 $ury=0.0900 $lvl=12
*|I (MM1:GATE MM1 GATE I 3.6e-19 0.0420 0.0900) // $llx=0.0420 $lly=0.0900 $urx=0.0420 $ury=0.0900 $lvl=12
*|I (MM31:GATE MM31 GATE I 3.6e-19 0.3360 0.0300) // $llx=0.3360 $lly=0.0300 $urx=0.3360 $ury=0.0300 $lvl=11
*|S (A:18 0.0420 0.0150) // $llx=0.0360 $lly=0.0150 $urx=0.0480 $ury=0.0150 $lvl=10
*|S (A:19 0.0420 0.0450) // $llx=0.0360 $lly=0.0450 $urx=0.0480 $ury=0.0450 $lvl=11
*|S (A:20 0.0420 0.0750) // $llx=0.0360 $lly=0.0750 $urx=0.0480 $ury=0.0750 $lvl=10
*|S (A:21 0.0420 0.1050) // $llx=0.0360 $lly=0.1050 $urx=0.0480 $ury=0.1050 $lvl=12
*|S (A:22 0.0420 0.1100) // $llx=0.0360 $lly=0.1100 $urx=0.0480 $ury=0.1100 $lvl=10
*|S (A:23 0.0840 0.0150) // $llx=0.0780 $lly=0.0150 $urx=0.0900 $ury=0.0150 $lvl=10
*|S (A:24 0.0840 0.0450) // $llx=0.0780 $lly=0.0450 $urx=0.0900 $ury=0.0450 $lvl=11
*|S (A:25 0.0840 0.0750) // $llx=0.0780 $lly=0.0750 $urx=0.0900 $ury=0.0750 $lvl=10
*|S (A:26 0.0840 0.1050) // $llx=0.0780 $lly=0.1050 $urx=0.0900 $ury=0.1050 $lvl=12
*|S (A:27 0.0840 0.1100) // $llx=0.0780 $lly=0.1100 $urx=0.0900 $ury=0.1100 $lvl=10
*|S (A:28 0.1260 0.0150) // $llx=0.1200 $lly=0.0150 $urx=0.1320 $ury=0.0150 $lvl=10
*|S (A:29 0.1260 0.0450) // $llx=0.1200 $lly=0.0450 $urx=0.1320 $ury=0.0450 $lvl=11
*|S (A:30 0.1260 0.0750) // $llx=0.1200 $lly=0.0750 $urx=0.1320 $ury=0.0750 $lvl=10
*|S (A:31 0.1260 0.1050) // $llx=0.1200 $lly=0.1050 $urx=0.1320 $ury=0.1050 $lvl=12
*|S (A:32 0.1260 0.1100) // $llx=0.1200 $lly=0.1100 $urx=0.1320 $ury=0.1100 $lvl=10
*|S (A:33 0.1680 0.0150) // $llx=0.1620 $lly=0.0150 $urx=0.1740 $ury=0.0150 $lvl=10
*|S (A:34 0.1680 0.0450) // $llx=0.1620 $lly=0.0450 $urx=0.1740 $ury=0.0450 $lvl=11
*|S (A:35 0.1680 0.0750) // $llx=0.1620 $lly=0.0750 $urx=0.1740 $ury=0.0750 $lvl=10
*|S (A:36 0.1680 0.1050) // $llx=0.1620 $lly=0.1050 $urx=0.1740 $ury=0.1050 $lvl=12
*|S (A:37 0.1680 0.1100) // $llx=0.1620 $lly=0.1100 $urx=0.1740 $ury=0.1100 $lvl=10
*|S (A:38 0.2100 0.0150) // $llx=0.2040 $lly=0.0150 $urx=0.2160 $ury=0.0150 $lvl=10
*|S (A:39 0.2100 0.0450) // $llx=0.2040 $lly=0.0450 $urx=0.2160 $ury=0.0450 $lvl=11
*|S (A:40 0.2100 0.0750) // $llx=0.2040 $lly=0.0750 $urx=0.2160 $ury=0.0750 $lvl=10
*|S (A:41 0.2100 0.1050) // $llx=0.2040 $lly=0.1050 $urx=0.2160 $ury=0.1050 $lvl=12
*|S (A:42 0.2100 0.1100) // $llx=0.2040 $lly=0.1100 $urx=0.2160 $ury=0.1100 $lvl=10
*|S (A:43 0.2520 0.0150) // $llx=0.2460 $lly=0.0150 $urx=0.2580 $ury=0.0150 $lvl=10
*|S (A:44 0.2520 0.0450) // $llx=0.2460 $lly=0.0450 $urx=0.2580 $ury=0.0450 $lvl=11
*|S (A:45 0.2520 0.0750) // $llx=0.2460 $lly=0.0750 $urx=0.2580 $ury=0.0750 $lvl=10
*|S (A:46 0.2520 0.1050) // $llx=0.2460 $lly=0.1050 $urx=0.2580 $ury=0.1050 $lvl=12
*|S (A:47 0.2520 0.1100) // $llx=0.2460 $lly=0.1100 $urx=0.2580 $ury=0.1100 $lvl=10
*|S (A:48 0.2940 0.0150) // $llx=0.2880 $lly=0.0150 $urx=0.3000 $ury=0.0150 $lvl=10
*|S (A:49 0.2940 0.0450) // $llx=0.2880 $lly=0.0450 $urx=0.3000 $ury=0.0450 $lvl=11
*|S (A:50 0.2940 0.0750) // $llx=0.2880 $lly=0.0750 $urx=0.3000 $ury=0.0750 $lvl=10
*|S (A:51 0.2940 0.1050) // $llx=0.2880 $lly=0.1050 $urx=0.3000 $ury=0.1050 $lvl=12
*|S (A:52 0.2940 0.1100) // $llx=0.2880 $lly=0.1100 $urx=0.3000 $ury=0.1100 $lvl=10
*|S (A:53 0.3360 0.0150) // $llx=0.3300 $lly=0.0150 $urx=0.3420 $ury=0.0150 $lvl=10
*|S (A:54 0.3360 0.0450) // $llx=0.3300 $lly=0.0450 $urx=0.3420 $ury=0.0450 $lvl=11
*|S (A:55 0.3360 0.0750) // $llx=0.3300 $lly=0.0750 $urx=0.3420 $ury=0.0750 $lvl=10
*|S (A:56 0.3360 0.1050) // $llx=0.3300 $lly=0.1050 $urx=0.3420 $ury=0.1050 $lvl=12
*|S (A:57 0.3360 0.1100) // $llx=0.3300 $lly=0.1100 $urx=0.3420 $ury=0.1100 $lvl=10
*|S (A:58 0.2940 0.0600) // $llx=0.2880 $lly=0.0540 $urx=0.3000 $ury=0.0660 $lvl=10
*|S (A:59 0.0420 0.0600) // $llx=0.0360 $lly=0.0540 $urx=0.0480 $ury=0.0660 $lvl=9
*|S (A:60 0.0420 0.0600) // $llx=0.0360 $lly=0.0540 $urx=0.0480 $ury=0.0660 $lvl=10
*|S (A:61 0.0840 0.0600) // $llx=0.0780 $lly=0.0540 $urx=0.0900 $ury=0.0660 $lvl=9
*|S (A:62 0.0840 0.0600) // $llx=0.0780 $lly=0.0540 $urx=0.0900 $ury=0.0660 $lvl=10
*|S (A:63 0.1260 0.0600) // $llx=0.1200 $lly=0.0540 $urx=0.1320 $ury=0.0660 $lvl=9
*|S (A:64 0.1260 0.0600) // $llx=0.1200 $lly=0.0540 $urx=0.1320 $ury=0.0660 $lvl=10
*|S (A:65 0.1680 0.0600) // $llx=0.1620 $lly=0.0540 $urx=0.1740 $ury=0.0660 $lvl=9
*|S (A:66 0.1680 0.0600) // $llx=0.1620 $lly=0.0540 $urx=0.1740 $ury=0.0660 $lvl=10
*|S (A:67 0.2100 0.0600) // $llx=0.2040 $lly=0.0540 $urx=0.2160 $ury=0.0660 $lvl=9
*|S (A:68 0.2100 0.0600) // $llx=0.2040 $lly=0.0540 $urx=0.2160 $ury=0.0660 $lvl=10
*|S (A:69 0.2520 0.0600) // $llx=0.2460 $lly=0.0540 $urx=0.2580 $ury=0.0660 $lvl=9
*|S (A:70 0.2520 0.0600) // $llx=0.2460 $lly=0.0540 $urx=0.2580 $ury=0.0660 $lvl=10
*|S (A:71 0.3150 0.0600) // $llx=0.3090 $lly=0.0540 $urx=0.3210 $ury=0.0660 $lvl=9
*|S (A:72 0.3150 0.0600) // $llx=0.3090 $lly=0.0540 $urx=0.3210 $ury=0.0660 $lvl=14
*|S (A:73 0.3210 0.0600) // $llx=0.3210 $lly=0.0540 $urx=0.3210 $ury=0.0660 $lvl=9
*|S (A:74 0.0210 0.1020) // $llx=0.0150 $lly=0.1020 $urx=0.0270 $ury=0.1020 $lvl=9
*|S (A:75 0.0420 0.0100) // $llx=0.0360 $lly=0.0100 $urx=0.0480 $ury=0.0100 $lvl=10
*|S (A:76 0.0840 0.0100) // $llx=0.0780 $lly=0.0100 $urx=0.0900 $ury=0.0100 $lvl=10
*|S (A:77 0.1260 0.0100) // $llx=0.1200 $lly=0.0100 $urx=0.1320 $ury=0.0100 $lvl=10
*|S (A:78 0.1680 0.0100) // $llx=0.1620 $lly=0.0100 $urx=0.1740 $ury=0.0100 $lvl=10
*|S (A:79 0.2100 0.0100) // $llx=0.2040 $lly=0.0100 $urx=0.2160 $ury=0.0100 $lvl=10
*|S (A:80 0.2520 0.0100) // $llx=0.2460 $lly=0.0100 $urx=0.2580 $ury=0.0100 $lvl=10
*|S (A:81 0.2940 0.0100) // $llx=0.2880 $lly=0.0100 $urx=0.3000 $ury=0.0100 $lvl=10
*|S (A:82 0.3360 0.0100) // $llx=0.3300 $lly=0.0100 $urx=0.3420 $ury=0.0100 $lvl=10
*|S (A:83 0.3360 0.0600) // $llx=0.3300 $lly=0.0540 $urx=0.3420 $ury=0.0660 $lvl=10
*|S (A:84 0.0210 0.0180) // $llx=0.0150 $lly=0.0180 $urx=0.0270 $ury=0.0180 $lvl=9
Cg1_1 A 0 1.76775e-18
Cg1_2 A:18 0 6.02191e-20
Cg1_3 A:19 0 2.43715e-19
Cg1_4 A:20 0 2.6987e-19
Cg1_5 A:21 0 3.75304e-19
Cg1_6 A:22 0 1.72208e-19
Cg1_7 A:23 0 6.11935e-20
Cg1_8 A:24 0 2.43715e-19
Cg1_9 A:25 0 2.70364e-19
Cg1_10 A:26 0 3.68393e-19
Cg1_11 A:27 0 1.74064e-19
Cg1_12 A:28 0 6.11935e-20
Cg1_13 A:29 0 2.43715e-19
Cg1_14 A:30 0 2.70364e-19
Cg1_15 A:31 0 3.68393e-19
Cg1_16 A:32 0 1.74064e-19
Cg1_17 A:33 0 6.11935e-20
Cg1_18 A:34 0 2.43715e-19
Cg1_19 A:35 0 2.70364e-19
Cg1_20 A:36 0 3.68393e-19
Cg1_21 A:37 0 1.74064e-19
Cg1_22 A:38 0 6.11935e-20
Cg1_23 A:39 0 2.43715e-19
Cg1_24 A:40 0 2.70364e-19
Cg1_25 A:41 0 3.68393e-19
Cg1_26 A:42 0 1.74064e-19
Cg1_27 A:43 0 6.11935e-20
Cg1_28 A:44 0 2.43715e-19
Cg1_29 A:45 0 2.70364e-19
Cg1_30 A:46 0 3.68393e-19
Cg1_31 A:47 0 1.74064e-19
Cg1_32 A:48 0 6.11935e-20
Cg1_33 A:49 0 2.43715e-19
Cg1_34 A:50 0 2.70364e-19
Cg1_35 A:51 0 3.68393e-19
Cg1_36 A:52 0 1.74064e-19
Cg1_37 A:53 0 6.11935e-20
Cg1_38 A:54 0 2.43715e-19
Cg1_39 A:55 0 2.71935e-19
Cg1_40 A:56 0 3.68393e-19
Cg1_41 A:57 0 1.74064e-19
Cg1_42 A:58 0 2.76666e-19
Cg1_43 A:60 0 7.35588e-20
Cg1_44 A:62 0 7.35727e-20
Cg1_45 A:64 0 7.35727e-20
Cg1_46 A:66 0 7.35727e-20
Cg1_47 A:68 0 7.35727e-20
Cg1_48 A:70 0 7.35727e-20
Cg1_49 A:73 0 4.56363e-18
Cg1_50 A:74 0 1.93761e-18
R1_1 A A:59 7.29167 $l=0.0210 $w=0.0120 $lvl=9
R1_2 A A:74 14.5833 $l=0.0420 $w=0.0120 $lvl=9
R1_3 A A:84 13.5417 $l=0.0420 $w=0.0120 $lvl=9
R1_4 MM28:GATE A:49 6.57895 $l=0.0150 $w=0.0120 $lvl=11
R1_5 MM28:GATE A:48 6.57895 $l=0.0150 $w=0.0120 $lvl=11
R1_6 MM27:GATE A:44 6.57895 $l=0.0150 $w=0.0120 $lvl=11
R1_7 MM27:GATE A:43 6.57895 $l=0.0150 $w=0.0120 $lvl=11
R1_8 MM24:GATE A:39 6.57895 $l=0.0150 $w=0.0120 $lvl=11
R1_9 MM24:GATE A:38 6.57895 $l=0.0150 $w=0.0120 $lvl=11
R1_10 MM23:GATE A:34 6.57895 $l=0.0150 $w=0.0120 $lvl=11
R1_11 MM23:GATE A:33 6.57895 $l=0.0150 $w=0.0120 $lvl=11
R1_12 MM20:GATE A:29 6.57895 $l=0.0150 $w=0.0120 $lvl=11
R1_13 MM20:GATE A:28 6.57895 $l=0.0150 $w=0.0120 $lvl=11
R1_14 MM19:GATE A:24 6.57895 $l=0.0150 $w=0.0120 $lvl=11
R1_15 MM19:GATE A:23 6.57895 $l=0.0150 $w=0.0120 $lvl=11
R1_16 MM0:GATE A:19 6.57895 $l=0.0150 $w=0.0120 $lvl=11
R1_17 MM0:GATE A:18 6.57895 $l=0.0150 $w=0.0120 $lvl=11
R1_18 MM30:GATE A:56 6.57895 $l=0.0150 $w=0.0120 $lvl=12
R1_19 MM30:GATE A:55 6.57895 $l=0.0150 $w=0.0120 $lvl=12
R1_20 MM29:GATE A:51 6.57895 $l=0.0150 $w=0.0120 $lvl=12
R1_21 MM29:GATE A:50 6.57895 $l=0.0150 $w=0.0120 $lvl=12
R1_22 MM26:GATE A:46 6.57895 $l=0.0150 $w=0.0120 $lvl=12
R1_23 MM26:GATE A:45 6.57895 $l=0.0150 $w=0.0120 $lvl=12
R1_24 MM25:GATE A:41 6.57895 $l=0.0150 $w=0.0120 $lvl=12
R1_25 MM25:GATE A:40 6.57895 $l=0.0150 $w=0.0120 $lvl=12
R1_26 MM22:GATE A:36 6.57895 $l=0.0150 $w=0.0120 $lvl=12
R1_27 MM22:GATE A:35 6.57895 $l=0.0150 $w=0.0120 $lvl=12
R1_28 MM21:GATE A:31 6.57895 $l=0.0150 $w=0.0120 $lvl=12
R1_29 MM21:GATE A:30 6.57895 $l=0.0150 $w=0.0120 $lvl=12
R1_30 MM18:GATE A:26 6.57895 $l=0.0150 $w=0.0120 $lvl=12
R1_31 MM18:GATE A:25 6.57895 $l=0.0150 $w=0.0120 $lvl=12
R1_32 MM1:GATE A:21 6.57895 $l=0.0150 $w=0.0120 $lvl=12
R1_33 MM1:GATE A:20 6.57895 $l=0.0150 $w=0.0120 $lvl=12
R1_34 MM31:GATE A:54 6.57895 $l=0.0150 $w=0.0120 $lvl=11
R1_35 MM31:GATE A:53 6.57895 $l=0.0150 $w=0.0120 $lvl=11
R1_36 A:18 A:75 2.19298 $l=0.0050 $w=0.0120 $lvl=10
R1_37 A:19 A:60 6.57895 $l=0.0150 $w=0.0120 $lvl=10
R1_38 A:20 A:60 6.57895 $l=0.0150 $w=0.0120 $lvl=10
R1_39 A:21 A:22 2.19298 $l=0.0050 $w=0.0120 $lvl=10
R1_40 A:23 A:76 2.19298 $l=0.0050 $w=0.0120 $lvl=10
R1_41 A:24 A:62 6.57895 $l=0.0150 $w=0.0120 $lvl=10
R1_42 A:25 A:62 6.57895 $l=0.0150 $w=0.0120 $lvl=10
R1_43 A:26 A:27 2.19298 $l=0.0050 $w=0.0120 $lvl=10
R1_44 A:28 A:77 2.19298 $l=0.0050 $w=0.0120 $lvl=10
R1_45 A:29 A:64 6.57895 $l=0.0150 $w=0.0120 $lvl=10
R1_46 A:30 A:64 6.57895 $l=0.0150 $w=0.0120 $lvl=10
R1_47 A:31 A:32 2.19298 $l=0.0050 $w=0.0120 $lvl=10
R1_48 A:33 A:78 2.19298 $l=0.0050 $w=0.0120 $lvl=10
R1_49 A:34 A:66 6.57895 $l=0.0150 $w=0.0120 $lvl=10
R1_50 A:35 A:66 6.57895 $l=0.0150 $w=0.0120 $lvl=10
R1_51 A:36 A:37 2.19298 $l=0.0050 $w=0.0120 $lvl=10
R1_52 A:38 A:79 2.19298 $l=0.0050 $w=0.0120 $lvl=10
R1_53 A:39 A:68 6.57895 $l=0.0150 $w=0.0120 $lvl=10
R1_54 A:40 A:68 6.57895 $l=0.0150 $w=0.0120 $lvl=10
R1_55 A:41 A:42 2.19298 $l=0.0050 $w=0.0120 $lvl=10
R1_56 A:43 A:80 2.19298 $l=0.0050 $w=0.0120 $lvl=10
R1_57 A:44 A:70 6.57895 $l=0.0150 $w=0.0120 $lvl=10
R1_58 A:45 A:70 6.57895 $l=0.0150 $w=0.0120 $lvl=10
R1_59 A:46 A:47 2.19298 $l=0.0050 $w=0.0120 $lvl=10
R1_60 A:48 A:81 2.19298 $l=0.0050 $w=0.0120 $lvl=10
R1_61 A:49 A:58 6.57895 $l=0.0150 $w=0.0120 $lvl=10
R1_62 A:50 A:58 6.57895 $l=0.0150 $w=0.0120 $lvl=10
R1_63 A:51 A:52 2.19298 $l=0.0050 $w=0.0120 $lvl=10
R1_64 A:53 A:82 2.19298 $l=0.0050 $w=0.0120 $lvl=10
R1_65 A:54 A:83 6.57895 $l=0.0150 $w=0.0120 $lvl=10
R1_66 A:55 A:83 6.57895 $l=0.0150 $w=0.0120 $lvl=10
R1_67 A:56 A:57 2.19298 $l=0.0050 $w=0.0120 $lvl=10
R1_68 A:58 A:72 27.7339 $l=0.0210 $w=0.0120 $lvl=14
R1_69 A:59 A:60 63.5281 $a=0.00014400 $lvl=30
R1_70 A:59 A:61 14.5833 $l=0.0420 $w=0.0120 $lvl=9
R1_71 A:61 A:62 63.5281 $a=0.00014400 $lvl=30
R1_72 A:61 A:63 14.5833 $l=0.0420 $w=0.0120 $lvl=9
R1_73 A:63 A:64 63.5281 $a=0.00014400 $lvl=30
R1_74 A:63 A:65 14.5833 $l=0.0420 $w=0.0120 $lvl=9
R1_75 A:65 A:66 63.5281 $a=0.00014400 $lvl=30
R1_76 A:65 A:67 14.5833 $l=0.0420 $w=0.0120 $lvl=9
R1_77 A:67 A:68 63.5281 $a=0.00014400 $lvl=30
R1_78 A:67 A:69 14.5833 $l=0.0420 $w=0.0120 $lvl=9
R1_79 A:69 A:70 63.5281 $a=0.00014400 $lvl=30
R1_80 A:69 A:71 21.875 $l=0.0630 $w=0.0120 $lvl=9
R1_81 A:71 A:72 63.5281 $a=0.00014400 $lvl=30
R1_82 A:71 A:73 2.08333 $l=0.0060 $w=0.0120 $lvl=9
R1_83 A:72 A:83 27.7339 $l=0.0210 $w=0.0120 $lvl=14

*|NET VSS 0.000189343PF
*|P (VSS B 0 0.2100 0.0000) // $llx=0.2090 $lly=-0.0010 $urx=0.2110 $ury=0.0010 $lvl=33
*|I (MM17:SRC MM17 SRC B 0 0.6780 0.0300) // $llx=0.6780 $lly=0.0300 $urx=0.6780 $ury=0.0300 $lvl=16
*|I (MM28:SRC MM28 SRC B 0 0.2880 0.0300) // $llx=0.2880 $lly=0.0300 $urx=0.2880 $ury=0.0300 $lvl=16
*|I (MM27:SRC MM27 SRC B 0 0.2580 0.0300) // $llx=0.2580 $lly=0.0300 $urx=0.2580 $ury=0.0300 $lvl=16
*|I (MM24:SRC MM24 SRC B 0 0.2040 0.0300) // $llx=0.2040 $lly=0.0300 $urx=0.2040 $ury=0.0300 $lvl=16
*|I (MM23:SRC MM23 SRC B 0 0.1740 0.0300) // $llx=0.1740 $lly=0.0300 $urx=0.1740 $ury=0.0300 $lvl=16
*|I (MM20:SRC MM20 SRC B 0 0.1200 0.0300) // $llx=0.1200 $lly=0.0300 $urx=0.1200 $ury=0.0300 $lvl=16
*|I (MM19:SRC MM19 SRC B 0 0.0900 0.0300) // $llx=0.0900 $lly=0.0300 $urx=0.0900 $ury=0.0300 $lvl=16
*|I (MM0:SRC MM0 SRC B 0 0.0360 0.0300) // $llx=0.0360 $lly=0.0300 $urx=0.0360 $ury=0.0300 $lvl=16
*|I (MM15:SRC MM15 SRC B 0 0.6240 0.0300) // $llx=0.6240 $lly=0.0300 $urx=0.6240 $ury=0.0300 $lvl=16
*|I (MM12:SRC MM12 SRC B 0 0.5940 0.0300) // $llx=0.5940 $lly=0.0300 $urx=0.5940 $ury=0.0300 $lvl=16
*|I (MM10:SRC MM10 SRC B 0 0.5400 0.0300) // $llx=0.5400 $lly=0.0300 $urx=0.5400 $ury=0.0300 $lvl=16
*|I (MM9:SRC MM9 SRC B 0 0.5100 0.0300) // $llx=0.5100 $lly=0.0300 $urx=0.5100 $ury=0.0300 $lvl=16
*|I (MM7:SRC MM7 SRC B 0 0.4560 0.0300) // $llx=0.4560 $lly=0.0300 $urx=0.4560 $ury=0.0300 $lvl=16
*|I (MM4:SRC MM4 SRC B 0 0.4260 0.0300) // $llx=0.4260 $lly=0.0300 $urx=0.4260 $ury=0.0300 $lvl=16
*|I (MM3:BULK MM3 BULK B 0 0.3780 0.0300) // $llx=0.3780 $lly=0.0300 $urx=0.3780 $ury=0.0300 $lvl=20
*|I (MM3:SRC MM3 SRC B 0 0.3720 0.0300) // $llx=0.3720 $lly=0.0300 $urx=0.3720 $ury=0.0300 $lvl=16
*|I (MM31:SRC MM31 SRC B 0 0.3420 0.0300) // $llx=0.3420 $lly=0.0300 $urx=0.3420 $ury=0.0300 $lvl=16
*|I (MM3:BULK MM17 BULK B 0 0.6720 0.0300) // $llx=0.6720 $lly=0.0300 $urx=0.6720 $ury=0.0300 $lvl=20
*|I (MM3:BULK MM28 BULK B 0 0.2940 0.0300) // $llx=0.2940 $lly=0.0300 $urx=0.2940 $ury=0.0300 $lvl=20
*|I (MM3:BULK MM27 BULK B 0 0.2520 0.0300) // $llx=0.2520 $lly=0.0300 $urx=0.2520 $ury=0.0300 $lvl=20
*|I (MM3:BULK MM24 BULK B 0 0.2100 0.0300) // $llx=0.2100 $lly=0.0300 $urx=0.2100 $ury=0.0300 $lvl=20
*|I (MM3:BULK MM23 BULK B 0 0.1680 0.0300) // $llx=0.1680 $lly=0.0300 $urx=0.1680 $ury=0.0300 $lvl=20
*|I (MM3:BULK MM20 BULK B 0 0.1260 0.0300) // $llx=0.1260 $lly=0.0300 $urx=0.1260 $ury=0.0300 $lvl=20
*|I (MM3:BULK MM19 BULK B 0 0.0840 0.0300) // $llx=0.0840 $lly=0.0300 $urx=0.0840 $ury=0.0300 $lvl=20
*|I (MM3:BULK MM0 BULK B 0 0.0420 0.0300) // $llx=0.0420 $lly=0.0300 $urx=0.0420 $ury=0.0300 $lvl=20
*|I (MM3:BULK MM15 BULK B 0 0.6300 0.0300) // $llx=0.6300 $lly=0.0300 $urx=0.6300 $ury=0.0300 $lvl=20
*|I (MM3:BULK MM12 BULK B 0 0.5880 0.0300) // $llx=0.5880 $lly=0.0300 $urx=0.5880 $ury=0.0300 $lvl=20
*|I (MM3:BULK MM10 BULK B 0 0.5460 0.0300) // $llx=0.5460 $lly=0.0300 $urx=0.5460 $ury=0.0300 $lvl=20
*|I (MM3:BULK MM9 BULK B 0 0.5040 0.0300) // $llx=0.5040 $lly=0.0300 $urx=0.5040 $ury=0.0300 $lvl=20
*|I (MM3:BULK MM7 BULK B 0 0.4620 0.0300) // $llx=0.4620 $lly=0.0300 $urx=0.4620 $ury=0.0300 $lvl=20
*|I (MM3:BULK MM4 BULK B 0 0.4200 0.0300) // $llx=0.4200 $lly=0.0300 $urx=0.4200 $ury=0.0300 $lvl=20
*|I (MM3:BULK MM31 BULK B 0 0.3360 0.0300) // $llx=0.3360 $lly=0.0300 $urx=0.3360 $ury=0.0300 $lvl=20
*|S (VSS:19 0.0210 0.0150) // $llx=0.0110 $lly=0.0150 $urx=0.0310 $ury=0.0150 $lvl=15
*|S (VSS:20 0.1050 0.0150) // $llx=0.0950 $lly=0.0150 $urx=0.1150 $ury=0.0150 $lvl=15
*|S (VSS:21 0.1890 0.0150) // $llx=0.1790 $lly=0.0150 $urx=0.1990 $ury=0.0150 $lvl=15
*|S (VSS:22 0.2730 0.0150) // $llx=0.2630 $lly=0.0150 $urx=0.2830 $ury=0.0150 $lvl=15
*|S (VSS:23 0.3570 0.0150) // $llx=0.3470 $lly=0.0150 $urx=0.3670 $ury=0.0150 $lvl=15
*|S (VSS:24 0.4410 0.0150) // $llx=0.4310 $lly=0.0150 $urx=0.4510 $ury=0.0150 $lvl=15
*|S (VSS:25 0.5250 0.0150) // $llx=0.5150 $lly=0.0150 $urx=0.5350 $ury=0.0150 $lvl=15
*|S (VSS:26 0.6090 0.0150) // $llx=0.5990 $lly=0.0150 $urx=0.6190 $ury=0.0150 $lvl=15
*|S (VSS:27 0.6930 0.0150) // $llx=0.6830 $lly=0.0150 $urx=0.7030 $ury=0.0150 $lvl=15
*|S (VSS:28 0.0210 0.0000) // $llx=0.0150 $lly=-0.0060 $urx=0.0270 $ury=0.0060 $lvl=9
*|S (VSS:29 0.0210 0.0000) // $llx=0.0110 $lly=-0.0060 $urx=0.0310 $ury=0.0060 $lvl=13
*|S (VSS:30 0.0630 0.0000) // $llx=0.0570 $lly=-0.0060 $urx=0.0690 $ury=0.0060 $lvl=9
*|S (VSS:31 0.0630 0.0000) // $llx=0.0570 $lly=-0.0060 $urx=0.0690 $ury=0.0060 $lvl=14
*|S (VSS:32 0.1050 0.0000) // $llx=0.0990 $lly=-0.0060 $urx=0.1110 $ury=0.0060 $lvl=9
*|S (VSS:33 0.1050 0.0000) // $llx=0.0950 $lly=-0.0060 $urx=0.1150 $ury=0.0060 $lvl=13
*|S (VSS:34 0.1470 0.0000) // $llx=0.1410 $lly=-0.0060 $urx=0.1530 $ury=0.0060 $lvl=9
*|S (VSS:35 0.1470 0.0000) // $llx=0.1410 $lly=-0.0060 $urx=0.1530 $ury=0.0060 $lvl=14
*|S (VSS:36 0.1890 0.0000) // $llx=0.1830 $lly=-0.0060 $urx=0.1950 $ury=0.0060 $lvl=9
*|S (VSS:37 0.1890 0.0000) // $llx=0.1790 $lly=-0.0060 $urx=0.1990 $ury=0.0060 $lvl=13
*|S (VSS:38 0.2310 0.0000) // $llx=0.2250 $lly=-0.0060 $urx=0.2370 $ury=0.0060 $lvl=9
*|S (VSS:39 0.2310 0.0000) // $llx=0.2250 $lly=-0.0060 $urx=0.2370 $ury=0.0060 $lvl=14
*|S (VSS:40 0.2730 0.0000) // $llx=0.2670 $lly=-0.0060 $urx=0.2790 $ury=0.0060 $lvl=9
*|S (VSS:41 0.2730 0.0000) // $llx=0.2630 $lly=-0.0060 $urx=0.2830 $ury=0.0060 $lvl=13
*|S (VSS:42 0.3150 0.0000) // $llx=0.3090 $lly=-0.0060 $urx=0.3210 $ury=0.0060 $lvl=9
*|S (VSS:43 0.3150 0.0000) // $llx=0.3090 $lly=-0.0060 $urx=0.3210 $ury=0.0060 $lvl=14
*|S (VSS:44 0.3570 0.0000) // $llx=0.3510 $lly=-0.0060 $urx=0.3630 $ury=0.0060 $lvl=9
*|S (VSS:45 0.3570 0.0000) // $llx=0.3470 $lly=-0.0060 $urx=0.3670 $ury=0.0060 $lvl=13
*|S (VSS:46 0.3990 0.0000) // $llx=0.3930 $lly=-0.0060 $urx=0.4050 $ury=0.0060 $lvl=9
*|S (VSS:47 0.3990 0.0000) // $llx=0.3930 $lly=-0.0060 $urx=0.4050 $ury=0.0060 $lvl=14
*|S (VSS:48 0.4410 0.0000) // $llx=0.4350 $lly=-0.0060 $urx=0.4470 $ury=0.0060 $lvl=9
*|S (VSS:49 0.4410 0.0000) // $llx=0.4310 $lly=-0.0060 $urx=0.4510 $ury=0.0060 $lvl=13
*|S (VSS:50 0.4830 0.0000) // $llx=0.4770 $lly=-0.0060 $urx=0.4890 $ury=0.0060 $lvl=9
*|S (VSS:51 0.4830 0.0000) // $llx=0.4770 $lly=-0.0060 $urx=0.4890 $ury=0.0060 $lvl=14
*|S (VSS:52 0.5250 0.0000) // $llx=0.5190 $lly=-0.0060 $urx=0.5310 $ury=0.0060 $lvl=9
*|S (VSS:53 0.5250 0.0000) // $llx=0.5150 $lly=-0.0060 $urx=0.5350 $ury=0.0060 $lvl=13
*|S (VSS:54 0.5670 0.0000) // $llx=0.5610 $lly=-0.0060 $urx=0.5730 $ury=0.0060 $lvl=9
*|S (VSS:55 0.5670 0.0000) // $llx=0.5610 $lly=-0.0060 $urx=0.5730 $ury=0.0060 $lvl=14
*|S (VSS:56 0.6090 0.0000) // $llx=0.6030 $lly=-0.0060 $urx=0.6150 $ury=0.0060 $lvl=9
*|S (VSS:57 0.6090 0.0000) // $llx=0.5990 $lly=-0.0060 $urx=0.6190 $ury=0.0060 $lvl=13
*|S (VSS:58 0.6510 0.0000) // $llx=0.6450 $lly=-0.0060 $urx=0.6570 $ury=0.0060 $lvl=9
*|S (VSS:59 0.6510 0.0000) // $llx=0.6450 $lly=-0.0060 $urx=0.6570 $ury=0.0060 $lvl=14
*|S (VSS:60 0.6930 0.0000) // $llx=0.6870 $lly=-0.0060 $urx=0.6990 $ury=0.0060 $lvl=9
*|S (VSS:61 0.6930 0.0000) // $llx=0.6830 $lly=-0.0060 $urx=0.7030 $ury=0.0060 $lvl=13
*|S (VSS:62 0.0210 0.0450) // $llx=0.0110 $lly=0.0450 $urx=0.0310 $ury=0.0450 $lvl=15
*|S (VSS:63 0.1050 0.0450) // $llx=0.0950 $lly=0.0450 $urx=0.1150 $ury=0.0450 $lvl=15
*|S (VSS:64 0.1890 0.0450) // $llx=0.1790 $lly=0.0450 $urx=0.1990 $ury=0.0450 $lvl=15
*|S (VSS:65 0.2730 0.0450) // $llx=0.2630 $lly=0.0450 $urx=0.2830 $ury=0.0450 $lvl=15
*|S (VSS:66 0.3570 0.0450) // $llx=0.3470 $lly=0.0450 $urx=0.3670 $ury=0.0450 $lvl=15
*|S (VSS:67 0.4410 0.0450) // $llx=0.4310 $lly=0.0450 $urx=0.4510 $ury=0.0450 $lvl=15
*|S (VSS:68 0.5250 0.0450) // $llx=0.5150 $lly=0.0450 $urx=0.5350 $ury=0.0450 $lvl=15
*|S (VSS:69 0.6090 0.0450) // $llx=0.5990 $lly=0.0450 $urx=0.6190 $ury=0.0450 $lvl=15
*|S (VSS:70 0.6930 0.0450) // $llx=0.6830 $lly=0.0450 $urx=0.7030 $ury=0.0450 $lvl=15
*|S (VSS:71 -0.0090 0.0000) // $llx=-0.0090 $lly=-0.0060 $urx=-0.0090 $ury=0.0060 $lvl=9
*|S (VSS:72 0.7230 0.0000) // $llx=0.7230 $lly=-0.0060 $urx=0.7230 $ury=0.0060 $lvl=9
*|S (VSS:73 -0.0090 0.0000) // $llx=-0.0090 $lly=-0.0060 $urx=-0.0090 $ury=0.0060 $lvl=14
*|S (VSS:74 0.7230 0.0000) // $llx=0.7230 $lly=-0.0060 $urx=0.7230 $ury=0.0060 $lvl=14
*|S (VSS:75 0.0210 0.0300) // $llx=0.0110 $lly=0.0300 $urx=0.0310 $ury=0.0300 $lvl=15
*|S (VSS:76 0.1050 0.0300) // $llx=0.0950 $lly=0.0300 $urx=0.1150 $ury=0.0300 $lvl=15
*|S (VSS:77 0.1890 0.0300) // $llx=0.1790 $lly=0.0300 $urx=0.1990 $ury=0.0300 $lvl=15
*|S (VSS:78 0.2730 0.0300) // $llx=0.2630 $lly=0.0300 $urx=0.2830 $ury=0.0300 $lvl=15
*|S (VSS:79 0.3570 0.0300) // $llx=0.3470 $lly=0.0300 $urx=0.3670 $ury=0.0300 $lvl=15
*|S (VSS:80 0.4410 0.0300) // $llx=0.4310 $lly=0.0300 $urx=0.4510 $ury=0.0300 $lvl=15
*|S (VSS:81 0.5250 0.0300) // $llx=0.5150 $lly=0.0300 $urx=0.5350 $ury=0.0300 $lvl=15
*|S (VSS:82 0.6090 0.0300) // $llx=0.5990 $lly=0.0300 $urx=0.6190 $ury=0.0300 $lvl=15
*|S (VSS:83 0.6930 0.0300) // $llx=0.6830 $lly=0.0300 $urx=0.7030 $ury=0.0300 $lvl=15
C2_1 MM3:BULK A 4.4558e-19
C2_2 VSS:19 A 2.47493e-19
C2_3 VSS:29 A 3.44814e-19
C2_4 VSS:61 A 1.00765e-19
C2_5 VSS:62 A 4.3527e-20
C2_6 VSS:71 A 9.92946e-19
C2_7 VSS:72 A 9.92946e-19
C2_8 VSS:61 A:20 4.41316e-20
C2_9 VSS:61 A:25 4.30793e-20
C2_10 VSS:61 A:30 4.30793e-20
C2_11 VSS:61 A:35 4.30793e-20
C2_12 VSS:61 A:40 4.30793e-20
C2_13 VSS:61 A:45 4.30793e-20
C2_14 VSS:61 A:50 4.30793e-20
C2_15 VSS:61 A:55 4.30793e-20
C2_16 VSS:61 A:58 7.57903e-21
C2_17 VSS:61 A:60 3.6446e-21
C2_18 VSS:61 A:62 3.78951e-21
C2_19 VSS:61 A:64 3.78951e-21
C2_20 VSS:61 A:66 3.78951e-21
C2_21 VSS:61 A:68 3.78951e-21
C2_22 VSS:61 A:70 3.78951e-21
C2_23 MM3:BULK A:73 1.18775e-18
C2_24 VSS:61 A:73 2.22565e-20
C2_25 VSS:71 A:73 1.12824e-18
C2_26 VSS:72 A:73 1.12824e-18
C2_27 MM3:BULK A:74 3.02845e-19
Cg2_28 MM3:BULK 0 2.21305e-17
Cg2_29 VSS:19 0 2.656e-19
Cg2_30 VSS:20 0 2.73586e-19
Cg2_31 VSS:21 0 2.73586e-19
Cg2_32 VSS:22 0 2.73586e-19
Cg2_33 VSS:23 0 2.656e-19
Cg2_34 VSS:24 0 2.73586e-19
Cg2_35 VSS:25 0 2.73586e-19
Cg2_36 VSS:26 0 2.73586e-19
Cg2_37 VSS:27 0 1.78742e-19
Cg2_38 VSS:29 0 6.02945e-19
Cg2_39 VSS:33 0 3.21095e-19
Cg2_40 VSS:37 0 3.19586e-19
Cg2_41 VSS:41 0 3.18077e-19
Cg2_42 VSS:45 0 2.96689e-19
Cg2_43 VSS:49 0 3.29946e-19
Cg2_44 VSS:53 0 3.31455e-19
Cg2_45 VSS:57 0 3.10748e-19
Cg2_46 VSS:61 0 5.60529e-18
Cg2_47 VSS:62 0 5.17687e-19
Cg2_48 VSS:63 0 6.21225e-19
Cg2_49 VSS:64 0 6.21225e-19
Cg2_50 VSS:65 0 6.21225e-19
Cg2_51 VSS:66 0 6.21225e-19
Cg2_52 VSS:67 0 6.21225e-19
Cg2_53 VSS:68 0 6.21225e-19
Cg2_54 VSS:69 0 6.21225e-19
Cg2_55 VSS:70 0 5.17687e-19
Cg2_56 VSS:71 0 9.08341e-18
Cg2_57 VSS:72 0 9.08341e-18
R2_1 VSS VSS:38 7.29167 $l=0.0210 $w=0.0120 $lvl=9
R2_2 VSS VSS:36 7.29167 $l=0.0210 $w=0.0120 $lvl=9
R2_3 MM17:SRC VSS:70 2.0 $l=0.0150 $w=0.0075 $lvl=16
R2_4 MM17:SRC VSS:27 2.0 $l=0.0150 $w=0.0075 $lvl=16
R2_5 MM17:SRC VSS:83 1.0 $l=0.0150 $w=0.0150 $lvl=16
R2_6 MM28:SRC VSS:65 2.0 $l=0.0150 $w=0.0075 $lvl=16
R2_7 MM28:SRC VSS:22 2.0 $l=0.0150 $w=0.0075 $lvl=16
R2_8 MM28:SRC VSS:78 1.0 $l=0.0150 $w=0.0150 $lvl=16
R2_9 MM27:SRC VSS:65 2.0 $l=0.0150 $w=0.0075 $lvl=16
R2_10 MM27:SRC VSS:22 2.0 $l=0.0150 $w=0.0075 $lvl=16
R2_11 MM27:SRC VSS:78 1.0 $l=0.0150 $w=0.0150 $lvl=16
R2_12 MM24:SRC VSS:64 2.0 $l=0.0150 $w=0.0075 $lvl=16
R2_13 MM24:SRC VSS:21 2.0 $l=0.0150 $w=0.0075 $lvl=16
R2_14 MM24:SRC VSS:77 1.0 $l=0.0150 $w=0.0150 $lvl=16
R2_15 MM23:SRC VSS:64 2.0 $l=0.0150 $w=0.0075 $lvl=16
R2_16 MM23:SRC VSS:21 2.0 $l=0.0150 $w=0.0075 $lvl=16
R2_17 MM23:SRC VSS:77 1.0 $l=0.0150 $w=0.0150 $lvl=16
R2_18 MM20:SRC VSS:63 2.0 $l=0.0150 $w=0.0075 $lvl=16
R2_19 MM20:SRC VSS:20 2.0 $l=0.0150 $w=0.0075 $lvl=16
R2_20 MM20:SRC VSS:76 1.0 $l=0.0150 $w=0.0150 $lvl=16
R2_21 MM19:SRC VSS:63 2.0 $l=0.0150 $w=0.0075 $lvl=16
R2_22 MM19:SRC VSS:20 2.0 $l=0.0150 $w=0.0075 $lvl=16
R2_23 MM19:SRC VSS:76 1.0 $l=0.0150 $w=0.0150 $lvl=16
R2_24 MM0:SRC VSS:62 2.0 $l=0.0150 $w=0.0075 $lvl=16
R2_25 MM0:SRC VSS:19 2.0 $l=0.0150 $w=0.0075 $lvl=16
R2_26 MM0:SRC VSS:75 1.0 $l=0.0150 $w=0.0150 $lvl=16
R2_27 MM15:SRC VSS:69 2.0 $l=0.0150 $w=0.0075 $lvl=16
R2_28 MM15:SRC VSS:26 2.0 $l=0.0150 $w=0.0075 $lvl=16
R2_29 MM15:SRC VSS:82 1.0 $l=0.0150 $w=0.0150 $lvl=16
R2_30 MM12:SRC VSS:69 2.0 $l=0.0150 $w=0.0075 $lvl=16
R2_31 MM12:SRC VSS:26 2.0 $l=0.0150 $w=0.0075 $lvl=16
R2_32 MM12:SRC VSS:82 1.0 $l=0.0150 $w=0.0150 $lvl=16
R2_33 MM10:SRC VSS:68 2.0 $l=0.0150 $w=0.0075 $lvl=16
R2_34 MM10:SRC VSS:25 2.0 $l=0.0150 $w=0.0075 $lvl=16
R2_35 MM10:SRC VSS:81 1.0 $l=0.0150 $w=0.0150 $lvl=16
R2_36 MM9:SRC VSS:68 2.0 $l=0.0150 $w=0.0075 $lvl=16
R2_37 MM9:SRC VSS:25 2.0 $l=0.0150 $w=0.0075 $lvl=16
R2_38 MM9:SRC VSS:81 1.0 $l=0.0150 $w=0.0150 $lvl=16
R2_39 MM7:SRC VSS:67 2.0 $l=0.0150 $w=0.0075 $lvl=16
R2_40 MM7:SRC VSS:24 2.0 $l=0.0150 $w=0.0075 $lvl=16
R2_41 MM7:SRC VSS:80 1.0 $l=0.0150 $w=0.0150 $lvl=16
R2_42 MM4:SRC VSS:67 2.0 $l=0.0150 $w=0.0075 $lvl=16
R2_43 MM4:SRC VSS:24 2.0 $l=0.0150 $w=0.0075 $lvl=16
R2_44 MM4:SRC VSS:80 1.0 $l=0.0150 $w=0.0150 $lvl=16
R2_45 MM3:SRC VSS:66 2.0 $l=0.0150 $w=0.0075 $lvl=16
R2_46 MM3:SRC VSS:23 2.0 $l=0.0150 $w=0.0075 $lvl=16
R2_47 MM3:SRC VSS:79 1.0 $l=0.0150 $w=0.0150 $lvl=16
R2_48 MM31:SRC VSS:66 2.0 $l=0.0150 $w=0.0075 $lvl=16
R2_49 MM31:SRC VSS:23 2.0 $l=0.0150 $w=0.0075 $lvl=16
R2_50 MM31:SRC VSS:79 1.0 $l=0.0150 $w=0.0150 $lvl=16
R2_51 VSS:19 VSS:75 2.73284 $l=0.0150 $w=0.0225 $lvl=16
R2_52 VSS:19 VSS:29 8.89907 $l=0.0150 $w=0.0200 $lvl=13
R2_53 VSS:20 VSS:76 1.87763 $l=0.0150 $w=0.0250 $lvl=16
R2_54 VSS:20 VSS:33 8.89907 $l=0.0150 $w=0.0200 $lvl=13
R2_55 VSS:21 VSS:77 1.87763 $l=0.0150 $w=0.0250 $lvl=16
R2_56 VSS:21 VSS:37 8.89907 $l=0.0150 $w=0.0200 $lvl=13
R2_57 VSS:22 VSS:78 1.87763 $l=0.0150 $w=0.0250 $lvl=16
R2_58 VSS:22 VSS:41 8.89907 $l=0.0150 $w=0.0200 $lvl=13
R2_59 VSS:23 VSS:79 1.87763 $l=0.0150 $w=0.0250 $lvl=16
R2_60 VSS:23 VSS:45 8.89907 $l=0.0150 $w=0.0200 $lvl=13
R2_61 VSS:24 VSS:80 1.87763 $l=0.0150 $w=0.0250 $lvl=16
R2_62 VSS:24 VSS:49 8.89907 $l=0.0150 $w=0.0200 $lvl=13
R2_63 VSS:25 VSS:81 1.87763 $l=0.0150 $w=0.0250 $lvl=16
R2_64 VSS:25 VSS:53 8.89907 $l=0.0150 $w=0.0200 $lvl=13
R2_65 VSS:26 VSS:82 1.87763 $l=0.0150 $w=0.0250 $lvl=16
R2_66 VSS:26 VSS:57 8.89907 $l=0.0150 $w=0.0200 $lvl=13
R2_67 VSS:27 VSS:83 2.73284 $l=0.0150 $w=0.0225 $lvl=16
R2_68 VSS:27 VSS:61 8.89907 $l=0.0150 $w=0.0200 $lvl=13
R2_69 VSS:28 VSS:29 31.764 $a=0.00028800 $lvl=31
R2_70 VSS:28 VSS:71 10.4167 $l=0.0300 $w=0.0120 $lvl=9
R2_71 VSS:28 VSS:30 14.5833 $l=0.0420 $w=0.0120 $lvl=9
R2_72 VSS:29 VSS:31 50.1851 $l=0.0420 $w=0.0120 $lvl=14
R2_73 VSS:29 VSS:73 34.3372 $l=0.0300 $w=0.0120 $lvl=14
R2_74 VSS:30 VSS:31 63.5281 $a=0.00014400 $lvl=30
R2_75 VSS:30 VSS:32 14.5833 $l=0.0420 $w=0.0120 $lvl=9
R2_76 VSS:31 VSS:33 50.1851 $l=0.0420 $w=0.0120 $lvl=14
R2_77 VSS:32 VSS:33 31.764 $a=0.00028800 $lvl=31
R2_78 VSS:32 VSS:34 14.5833 $l=0.0420 $w=0.0120 $lvl=9
R2_79 VSS:33 VSS:35 50.1851 $l=0.0420 $w=0.0120 $lvl=14
R2_80 VSS:34 VSS:35 63.5281 $a=0.00014400 $lvl=30
R2_81 VSS:34 VSS:36 14.5833 $l=0.0420 $w=0.0120 $lvl=9
R2_82 VSS:35 VSS:37 50.1851 $l=0.0420 $w=0.0120 $lvl=14
R2_83 VSS:36 VSS:37 31.764 $a=0.00028800 $lvl=31
R2_84 VSS:37 VSS:39 50.1851 $l=0.0420 $w=0.0120 $lvl=14
R2_85 VSS:38 VSS:39 63.5281 $a=0.00014400 $lvl=30
R2_86 VSS:38 VSS:40 14.5833 $l=0.0420 $w=0.0120 $lvl=9
R2_87 VSS:39 VSS:41 50.1851 $l=0.0420 $w=0.0120 $lvl=14
R2_88 VSS:40 VSS:41 31.764 $a=0.00028800 $lvl=31
R2_89 VSS:40 VSS:42 14.5833 $l=0.0420 $w=0.0120 $lvl=9
R2_90 VSS:41 VSS:43 50.1851 $l=0.0420 $w=0.0120 $lvl=14
R2_91 VSS:42 VSS:43 63.5281 $a=0.00014400 $lvl=30
R2_92 VSS:42 VSS:44 14.5833 $l=0.0420 $w=0.0120 $lvl=9