*
*|DSPF 1.3
*|DESIGN DFFHQNx1
*|DATE "Tue Oct 15 21:09:55 2024"
*|VENDOR "Synopsys"
*|PROGRAM "StarRC"
*|VERSION "V-2023.12-SP5"
*|DIVIDER .
*|DELIMITER :
**FORMAT SPF
*

** COMMENTS

** OPERATING_TEMPERATURE 25
** GLOBAL_TEMPERATURE 25
** 
** TCAD_GRD_FILE /home/gtcad/ctsai314/ITF_Modification/0_reference/3nm_FF_noBPR.nxtgrd
**   TCAD_TIME_STAMP Tue Sep 3 21:56:12 2024
**   TCADGRD_VERSION 89

.SUBCKT DFFHQNx1 CK D QN VDD VSS

*|GROUND_NET 0

*LAYER_MAP

*0 SUBSTRATE
*1 m9    ITF=M9
*2 m8    ITF=M8
*3 m7    ITF=M7
*4 m6    ITF=M6
*5 m5    ITF=M5
*6 m4    ITF=M4
*7 m3    ITF=M3
*8 m2    ITF=M2
*9 m1    ITF=M1
*10 fpoly    ITF=Gate
*11 ngate    ITF=Gate
*12 pgate    ITF=Gate
*13 lisd    ITF=LISD
*14 lig    ITF=LIG
*15 sdt    ITF=SDT
*16 nsd    ITF=Active
*17 psd    ITF=Active
*18 pselect    ITF=Active
*19 well    ITF=Active
*20 sub    ITF=Active
*21 nselect    ITF=Active
*22 v8    ITF=V8
*23 v7    ITF=V7
*24 v6    ITF=V6
*25 v5    ITF=V5
*26 v4    ITF=V4
*27 v3    ITF=V3
*28 v2    ITF=V2
*29 v1    ITF=V1
*30 v0lig    ITF=V0LIG
*31 v0lisd    ITF=V0LISD
*32 well_pin    ITF=Active
*33 M1_pin    ITF=M1
*34 M2_pin    ITF=M2
*35 M3_pin    ITF=M3
*36 M4_pin    ITF=M4
*37 M5_pin    ITF=M5
*38 M6_pin    ITF=M6
*39 M7_pin    ITF=M7
*40 M8_pin    ITF=M8
*41 M9_pin    ITF=M9

*|NET CK 2.22669e-05PF
*|P (CK B 0 0.0490 0.0600) // $llx=0.0430 $lly=0.0540 $urx=0.0550 $ury=0.0660 $lvl=33
*|I (MM0:GATE MM0 GATE I 3.6e-19 0.0420 0.0300) // $llx=0.0420 $lly=0.0300 $urx=0.0420 $ury=0.0300 $lvl=11
*|I (MM2:GATE MM2 GATE I 3.6e-19 0.0420 0.0900) // $llx=0.0420 $lly=0.0900 $urx=0.0420 $ury=0.0900 $lvl=12
*|S (CK:4 0.0420 0.0150) // $llx=0.0360 $lly=0.0150 $urx=0.0480 $ury=0.0150 $lvl=10
*|S (CK:5 0.0420 0.0450) // $llx=0.0360 $lly=0.0450 $urx=0.0480 $ury=0.0450 $lvl=11
*|S (CK:6 0.0420 0.0750) // $llx=0.0360 $lly=0.0750 $urx=0.0480 $ury=0.0750 $lvl=10
*|S (CK:7 0.0420 0.1050) // $llx=0.0360 $lly=0.1050 $urx=0.0480 $ury=0.1050 $lvl=12
*|S (CK:8 0.0420 0.1100) // $llx=0.0360 $lly=0.1100 $urx=0.0480 $ury=0.1100 $lvl=10
*|S (CK:9 0.0420 0.0600) // $llx=0.0360 $lly=0.0540 $urx=0.0480 $ury=0.0660 $lvl=10
*|S (CK:10 0.0490 0.0600) // $llx=0.0430 $lly=0.0540 $urx=0.0550 $ury=0.0660 $lvl=14
*|S (CK:11 0.0490 0.0180) // $llx=0.0430 $lly=0.0180 $urx=0.0550 $ury=0.0180 $lvl=9
*|S (CK:12 0.0420 0.0100) // $llx=0.0360 $lly=0.0100 $urx=0.0480 $ury=0.0100 $lvl=10
*|S (CK:13 0.0550 0.0600) // $llx=0.0550 $lly=0.0540 $urx=0.0550 $ury=0.0660 $lvl=14
*|S (CK:14 0.0490 0.1020) // $llx=0.0430 $lly=0.1020 $urx=0.0550 $ury=0.1020 $lvl=9
Cg1_1 CK:4 0 6.11935e-20
Cg1_2 CK:5 0 2.43715e-19
Cg1_3 CK:6 0 2.69338e-19
Cg1_4 CK:7 0 3.69334e-19
Cg1_5 CK:8 0 1.74274e-19
Cg1_6 CK:9 0 1.63528e-19
Cg1_7 CK:11 0 1.8542e-18
R1_1 CK CK:11 14.5833 $l=0.0420 $w=0.0120 $lvl=9
R1_2 CK CK:14 14.5833 $l=0.0420 $w=0.0120 $lvl=9
R1_3 CK CK:10 63.5281 $a=0.00014400 $lvl=30
R1_4 MM0:GATE CK:5 6.57895 $l=0.0150 $w=0.0120 $lvl=11
R1_5 MM0:GATE CK:4 6.57895 $l=0.0150 $w=0.0120 $lvl=11
R1_6 MM2:GATE CK:7 6.57895 $l=0.0150 $w=0.0120 $lvl=12
R1_7 MM2:GATE CK:6 6.57895 $l=0.0150 $w=0.0120 $lvl=12
R1_8 CK:4 CK:12 2.19298 $l=0.0050 $w=0.0120 $lvl=10
R1_9 CK:5 CK:9 6.57895 $l=0.0150 $w=0.0120 $lvl=10
R1_10 CK:6 CK:9 6.57895 $l=0.0150 $w=0.0120 $lvl=10
R1_11 CK:7 CK:8 2.19298 $l=0.0050 $w=0.0120 $lvl=10
R1_12 CK:9 CK:10 9.24462 $l=0.0070 $w=0.0120 $lvl=14
R1_13 CK:10 CK:13 7.92396 $l=0.0060 $w=0.0120 $lvl=14

*|NET D 2.09761e-05PF
*|P (D B 0 0.1470 0.0600) // $llx=0.1410 $lly=0.0540 $urx=0.1530 $ury=0.0660 $lvl=33
*|I (MM7:GATE MM7 GATE I 3.6e-19 0.1680 0.0300) // $llx=0.1680 $lly=0.0300 $urx=0.1680 $ury=0.0300 $lvl=11
*|I (MM4:GATE MM4 GATE I 3.6e-19 0.1680 0.0900) // $llx=0.1680 $lly=0.0900 $urx=0.1680 $ury=0.0900 $lvl=12
*|S (D:4 0.1680 0.0150) // $llx=0.1620 $lly=0.0150 $urx=0.1740 $ury=0.0150 $lvl=10
*|S (D:5 0.1680 0.0450) // $llx=0.1620 $lly=0.0450 $urx=0.1740 $ury=0.0450 $lvl=11
*|S (D:6 0.1680 0.0750) // $llx=0.1620 $lly=0.0750 $urx=0.1740 $ury=0.0750 $lvl=10
*|S (D:7 0.1680 0.1050) // $llx=0.1620 $lly=0.1050 $urx=0.1740 $ury=0.1050 $lvl=12
*|S (D:8 0.1680 0.1100) // $llx=0.1620 $lly=0.1100 $urx=0.1740 $ury=0.1100 $lvl=10
*|S (D:9 0.1680 0.0600) // $llx=0.1620 $lly=0.0540 $urx=0.1740 $ury=0.0660 $lvl=10
*|S (D:10 0.1470 0.0600) // $llx=0.1410 $lly=0.0540 $urx=0.1530 $ury=0.0660 $lvl=14
*|S (D:11 0.1470 0.0180) // $llx=0.1410 $lly=0.0180 $urx=0.1530 $ury=0.0180 $lvl=9
*|S (D:12 0.1680 0.0100) // $llx=0.1620 $lly=0.0100 $urx=0.1740 $ury=0.0100 $lvl=10
*|S (D:13 0.1410 0.0600) // $llx=0.1410 $lly=0.0540 $urx=0.1410 $ury=0.0660 $lvl=14
*|S (D:14 0.1470 0.1020) // $llx=0.1410 $lly=0.1020 $urx=0.1530 $ury=0.1020 $lvl=9
Cg2_1 D:4 0 6.05746e-20
Cg2_2 D:5 0 2.43715e-19
Cg2_3 D:6 0 2.72545e-19
Cg2_4 D:7 0 3.79686e-19
Cg2_5 D:8 0 1.76591e-19
Cg2_6 D:9 0 1.83247e-19
Cg2_7 D:11 0 2.26825e-18
R2_1 D D:11 14.5833 $l=0.0420 $w=0.0120 $lvl=9
R2_2 D D:14 14.5833 $l=0.0420 $w=0.0120 $lvl=9
R2_3 D D:10 63.5281 $a=0.00014400 $lvl=30
R2_4 MM7:GATE D:5 6.57895 $l=0.0150 $w=0.0120 $lvl=11
R2_5 MM7:GATE D:4 6.57895 $l=0.0150 $w=0.0120 $lvl=11
R2_6 MM4:GATE D:7 6.57895 $l=0.0150 $w=0.0120 $lvl=12
R2_7 MM4:GATE D:6 6.57895 $l=0.0150 $w=0.0120 $lvl=12
R2_8 D:4 D:12 2.19298 $l=0.0050 $w=0.0120 $lvl=10
R2_9 D:5 D:9 6.57895 $l=0.0150 $w=0.0120 $lvl=10
R2_10 D:6 D:9 6.57895 $l=0.0150 $w=0.0120 $lvl=10
R2_11 D:7 D:8 2.19298 $l=0.0050 $w=0.0120 $lvl=10
R2_12 D:9 D:10 27.7339 $l=0.0210 $w=0.0120 $lvl=14
R2_13 D:10 D:13 7.92396 $l=0.0060 $w=0.0120 $lvl=14

*|NET VSS 0.000159844PF
*|P (VSS B 0 0.3570 0.0000) // $llx=0.3510 $lly=-0.0060 $urx=0.3630 $ury=0.0060 $lvl=33
*|I (MM17:SRC MM17 SRC B 0 0.6660 0.0300) // $llx=0.6660 $lly=0.0300 $urx=0.6660 $ury=0.0300 $lvl=16
*|I (MM7:SRC MM7 SRC B 0 0.1620 0.0300) // $llx=0.1620 $lly=0.0300 $urx=0.1620 $ury=0.0300 $lvl=16
*|I (MM1:SRC MM1 SRC B 0 0.0780 0.0300) // $llx=0.0780 $lly=0.0300 $urx=0.0780 $ury=0.0300 $lvl=16
*|I (MM0:SRC MM0 SRC B 0 0.0480 0.0300) // $llx=0.0480 $lly=0.0300 $urx=0.0480 $ury=0.0300 $lvl=16
*|I (MM19:SRC MM19 SRC B 0 0.5820 0.0225) // $llx=0.5820 $lly=0.0225 $urx=0.5820 $ury=0.0225 $lvl=16
*|I (MM23:SRC MM23 SRC B 0 0.5520 0.0225) // $llx=0.5520 $lly=0.0225 $urx=0.5520 $ury=0.0225 $lvl=16
*|I (MM11:SRC MM11 SRC B 0 0.3720 0.0225) // $llx=0.3720 $lly=0.0225 $urx=0.3720 $ury=0.0225 $lvl=16
*|I (MM15:SRC MM15 SRC B 0 0.3420 0.0225) // $llx=0.3420 $lly=0.0225 $urx=0.3420 $ury=0.0225 $lvl=16
*|I (MM6:BULK MM6 BULK B 0 0.2520 0.0300) // $llx=0.2520 $lly=0.0300 $urx=0.2520 $ury=0.0300 $lvl=20
*|I (MM6:BULK MM17 BULK B 0 0.6720 0.0300) // $llx=0.6720 $lly=0.0300 $urx=0.6720 $ury=0.0300 $lvl=20
*|I (MM6:BULK MM7 BULK B 0 0.1680 0.0300) // $llx=0.1680 $lly=0.0300 $urx=0.1680 $ury=0.0300 $lvl=20
*|I (MM6:BULK MM1 BULK B 0 0.0840 0.0300) // $llx=0.0840 $lly=0.0300 $urx=0.0840 $ury=0.0300 $lvl=20
*|I (MM6:BULK MM0 BULK B 0 0.0420 0.0300) // $llx=0.0420 $lly=0.0300 $urx=0.0420 $ury=0.0300 $lvl=20
*|I (MM6:BULK MM19 BULK B 0 0.5880 0.0225) // $llx=0.5880 $lly=0.0225 $urx=0.5880 $ury=0.0225 $lvl=20
*|I (MM6:BULK MM23 BULK B 0 0.5460 0.0225) // $llx=0.5460 $lly=0.0225 $urx=0.5460 $ury=0.0225 $lvl=20
*|I (MM6:BULK MM22 BULK B 0 0.4620 0.0225) // $llx=0.4620 $lly=0.0225 $urx=0.4620 $ury=0.0225 $lvl=20
*|I (MM6:BULK MM10 BULK B 0 0.4200 0.0225) // $llx=0.4200 $lly=0.0225 $urx=0.4200 $ury=0.0225 $lvl=20
*|I (MM6:BULK MM11 BULK B 0 0.3780 0.0225) // $llx=0.3780 $lly=0.0225 $urx=0.3780 $ury=0.0225 $lvl=20
*|I (MM6:BULK MM15 BULK B 0 0.3360 0.0225) // $llx=0.3360 $lly=0.0225 $urx=0.3360 $ury=0.0225 $lvl=20
*|I (MM6:BULK MM14 BULK B 0 0.2940 0.0225) // $llx=0.2940 $lly=0.0225 $urx=0.2940 $ury=0.0225 $lvl=20
*|S (VSS:11 0.0630 0.0150) // $llx=0.0530 $lly=0.0150 $urx=0.0730 $ury=0.0150 $lvl=15
*|S (VSS:12 0.1470 0.0150) // $llx=0.1370 $lly=0.0150 $urx=0.1570 $ury=0.0150 $lvl=15
*|S (VSS:13 0.6510 0.0150) // $llx=0.6410 $lly=0.0150 $urx=0.6610 $ury=0.0150 $lvl=15
*|S (VSS:14 0.0210 0.0000) // $llx=0.0150 $lly=-0.0060 $urx=0.0270 $ury=0.0060 $lvl=9
*|S (VSS:15 0.0210 0.0000) // $llx=0.0150 $lly=-0.0060 $urx=0.0270 $ury=0.0060 $lvl=14
*|S (VSS:16 0.0630 0.0000) // $llx=0.0570 $lly=-0.0060 $urx=0.0690 $ury=0.0060 $lvl=9
*|S (VSS:17 0.1050 0.0000) // $llx=0.0990 $lly=-0.0060 $urx=0.1110 $ury=0.0060 $lvl=9
*|S (VSS:18 0.1050 0.0000) // $llx=0.0990 $lly=-0.0060 $urx=0.1110 $ury=0.0060 $lvl=14
*|S (VSS:19 0.1470 0.0000) // $llx=0.1410 $lly=-0.0060 $urx=0.1530 $ury=0.0060 $lvl=9
*|S (VSS:20 0.1890 0.0000) // $llx=0.1830 $lly=-0.0060 $urx=0.1950 $ury=0.0060 $lvl=9
*|S (VSS:21 0.1890 0.0000) // $llx=0.1830 $lly=-0.0060 $urx=0.1950 $ury=0.0060 $lvl=14
*|S (VSS:22 0.2310 0.0000) // $llx=0.2250 $lly=-0.0060 $urx=0.2370 $ury=0.0060 $lvl=9
*|S (VSS:23 0.2310 0.0000) // $llx=0.2250 $lly=-0.0060 $urx=0.2370 $ury=0.0060 $lvl=14
*|S (VSS:24 0.2730 0.0000) // $llx=0.2670 $lly=-0.0060 $urx=0.2790 $ury=0.0060 $lvl=9
*|S (VSS:25 0.2730 0.0000) // $llx=0.2670 $lly=-0.0060 $urx=0.2790 $ury=0.0060 $lvl=14
*|S (VSS:26 0.3150 0.0000) // $llx=0.3090 $lly=-0.0060 $urx=0.3210 $ury=0.0060 $lvl=9
*|S (VSS:27 0.3150 0.0000) // $llx=0.3090 $lly=-0.0060 $urx=0.3210 $ury=0.0060 $lvl=14
*|S (VSS:28 0.3990 0.0000) // $llx=0.3930 $lly=-0.0060 $urx=0.4050 $ury=0.0060 $lvl=9
*|S (VSS:29 0.3990 0.0000) // $llx=0.3930 $lly=-0.0060 $urx=0.4050 $ury=0.0060 $lvl=14
*|S (VSS:30 0.4410 0.0000) // $llx=0.4350 $lly=-0.0060 $urx=0.4470 $ury=0.0060 $lvl=9
*|S (VSS:31 0.4410 0.0000) // $llx=0.4350 $lly=-0.0060 $urx=0.4470 $ury=0.0060 $lvl=14
*|S (VSS:32 0.4830 0.0000) // $llx=0.4770 $lly=-0.0060 $urx=0.4890 $ury=0.0060 $lvl=9
*|S (VSS:33 0.4830 0.0000) // $llx=0.4770 $lly=-0.0060 $urx=0.4890 $ury=0.0060 $lvl=14
*|S (VSS:34 0.5250 0.0000) // $llx=0.5190 $lly=-0.0060 $urx=0.5310 $ury=0.0060 $lvl=9
*|S (VSS:35 0.5250 0.0000) // $llx=0.5190 $lly=-0.0060 $urx=0.5310 $ury=0.0060 $lvl=14
*|S (VSS:36 0.5670 0.0000) // $llx=0.5610 $lly=-0.0060 $urx=0.5730 $ury=0.0060 $lvl=9
*|S (VSS:37 0.6090 0.0000) // $llx=0.6030 $lly=-0.0060 $urx=0.6150 $ury=0.0060 $lvl=9
*|S (VSS:38 0.6090 0.0000) // $llx=0.6030 $lly=-0.0060 $urx=0.6150 $ury=0.0060 $lvl=14
*|S (VSS:39 0.6510 0.0000) // $llx=0.6450 $lly=-0.0060 $urx=0.6570 $ury=0.0060 $lvl=9
*|S (VSS:40 0.6510 0.0000) // $llx=0.6410 $lly=-0.0060 $urx=0.6610 $ury=0.0060 $lvl=13
*|S (VSS:41 0.6930 0.0000) // $llx=0.6870 $lly=-0.0060 $urx=0.6990 $ury=0.0060 $lvl=9
*|S (VSS:42 0.6930 0.0000) // $llx=0.6870 $lly=-0.0060 $urx=0.6990 $ury=0.0060 $lvl=14
*|S (VSS:43 0.0630 0.0450) // $llx=0.0530 $lly=0.0450 $urx=0.0730 $ury=0.0450 $lvl=15
*|S (VSS:44 0.1470 0.0450) // $llx=0.1370 $lly=0.0450 $urx=0.1570 $ury=0.0450 $lvl=15
*|S (VSS:45 0.7030 0.0600) // $llx=0.7030 $lly=-0.0100 $urx=0.7140 $ury=0.1300 $lvl=20
*|S (VSS:46 0.6510 0.0450) // $llx=0.6410 $lly=0.0450 $urx=0.6610 $ury=0.0450 $lvl=15
*|S (VSS:47 0.7510 0.0600) // $llx=0.7510 $lly=-0.0100 $urx=0.7510 $ury=0.1300 $lvl=20
*|S (VSS:48 -0.0090 0.0000) // $llx=-0.0090 $lly=-0.0060 $urx=-0.0090 $ury=0.0060 $lvl=9
*|S (VSS:49 0.7230 0.0000) // $llx=0.7230 $lly=-0.0060 $urx=0.7230 $ury=0.0060 $lvl=9
*|S (VSS:50 0.5670 0.0000) // $llx=0.5570 $lly=-0.0060 $urx=0.5770 $ury=0.0060 $lvl=14
*|S (VSS:51 0.3570 0.0000) // $llx=0.3470 $lly=-0.0060 $urx=0.3670 $ury=0.0060 $lvl=14
*|S (VSS:52 0.1470 0.0000) // $llx=0.1370 $lly=-0.0060 $urx=0.1570 $ury=0.0060 $lvl=14
*|S (VSS:53 0.0630 0.0000) // $llx=0.0530 $lly=-0.0060 $urx=0.0730 $ury=0.0060 $lvl=14
*|S (VSS:54 -0.0090 0.0000) // $llx=-0.0090 $lly=-0.0060 $urx=-0.0090 $ury=0.0060 $lvl=14
*|S (VSS:55 0.7230 0.0000) // $llx=0.7230 $lly=-0.0060 $urx=0.7230 $ury=0.0060 $lvl=14
*|S (VSS:56 0.0630 0.0300) // $llx=0.0530 $lly=0.0300 $urx=0.0730 $ury=0.0300 $lvl=15
*|S (VSS:57 0.1470 0.0300) // $llx=0.1370 $lly=0.0300 $urx=0.1570 $ury=0.0300 $lvl=15
*|S (VSS:58 0.3570 0.0200) // $llx=0.3470 $lly=0.0150 $urx=0.3670 $ury=0.0250 $lvl=15
*|S (VSS:59 0.5670 0.0200) // $llx=0.5570 $lly=0.0150 $urx=0.5770 $ury=0.0250 $lvl=15
*|S (VSS:60 0.6510 0.0300) // $llx=0.6410 $lly=0.0300 $urx=0.6610 $ury=0.0300 $lvl=15
*|S (VSS:61 0.3570 0.0300) // $llx=0.3470 $lly=0.0300 $urx=0.3670 $ury=0.0300 $lvl=16
*|S (VSS:62 0.5670 0.0300) // $llx=0.5570 $lly=0.0300 $urx=0.5770 $ury=0.0300 $lvl=16
C3_1 VSS:40 CK:6 4.1612e-20
C3_2 MM6:BULK CK:9 7.96256e-21
C3_3 VSS:40 CK:9 3.78951e-21
C3_4 MM6:BULK CK:11 2.48218e-19
C3_5 VSS:11 CK:11 1.82767e-20
C3_6 VSS:40 CK:11 9.72945e-20
C3_7 VSS:43 CK:11 8.02462e-20
C3_8 VSS:48 CK:11 1.04292e-18
C3_9 VSS:49 CK:11 1.04292e-18
C3_10 VSS:53 CK:11 9.82626e-20
C3_11 VSS:40 D:6 4.65718e-20
C3_12 VSS:40 D:9 3.78951e-21
C3_13 MM6:BULK D:11 4.66768e-19
C3_14 VSS:12 D:11 2.60635e-19
C3_15 VSS:40 D:11 1.03062e-19
C3_16 VSS:44 D:11 4.58313e-20
C3_17 VSS:48 D:11 9.88725e-19
C3_18 VSS:49 D:11 9.88725e-19
C3_19 VSS:52 D:11 3.42638e-19
Cg3_20 MM6:BULK 0 2.52724e-17
Cg3_21 VSS:11 0 2.81025e-19
Cg3_22 VSS:12 0 2.96753e-19
Cg3_23 VSS:13 0 1.90236e-19
Cg3_24 VSS:40 0 6.7431e-18
Cg3_25 VSS:43 0 6.06973e-19
Cg3_26 VSS:44 0 5.17687e-19
Cg3_27 VSS:45 0 1.05618e-18
Cg3_28 VSS:46 0 5.17687e-19
Cg3_29 VSS:48 0 9.18788e-18
Cg3_30 VSS:49 0 9.18788e-18
Cg3_31 VSS:50 0 8.09442e-20
Cg3_32 VSS:51 0 8.09442e-20
Cg3_33 VSS:52 0 6.37071e-19
Cg3_34 VSS:53 0 3.30684e-19
Cg3_35 VSS:58 0 4.27395e-19
Cg3_36 VSS:59 0 4.28022e-19
R3_1 VSS VSS:28 14.5833 $l=0.0420 $w=0.0120 $lvl=9
R3_2 VSS VSS:26 14.5833 $l=0.0420 $w=0.0120 $lvl=9
R3_3 VSS VSS:51 31.764 $a=0.00028800 $lvl=31
R3_4 MM17:SRC VSS:46 2.0 $l=0.0150 $w=0.0075 $lvl=16
R3_5 MM17:SRC VSS:13 2.0 $l=0.0150 $w=0.0075 $lvl=16
R3_6 MM17:SRC VSS:60 1.0 $l=0.0150 $w=0.0150 $lvl=16
R3_7 MM7:SRC VSS:44 2.0 $l=0.0150 $w=0.0075 $lvl=16
R3_8 MM7:SRC VSS:12 2.0 $l=0.0150 $w=0.0075 $lvl=16
R3_9 MM7:SRC VSS:57 1.0 $l=0.0150 $w=0.0150 $lvl=16
R3_10 MM1:SRC VSS:43 2.0 $l=0.0150 $w=0.0075 $lvl=16
R3_11 MM1:SRC VSS:11 2.0 $l=0.0150 $w=0.0075 $lvl=16
R3_12 MM1:SRC VSS:56 1.0 $l=0.0150 $w=0.0150 $lvl=16
R3_13 MM0:SRC VSS:43 2.0 $l=0.0150 $w=0.0075 $lvl=16
R3_14 MM0:SRC VSS:11 2.0 $l=0.0150 $w=0.0075 $lvl=16
R3_15 MM0:SRC VSS:56 1.0 $l=0.0150 $w=0.0150 $lvl=16
R3_16 MM19:SRC VSS:62 6.0 $l=0.0150 $w=0.0025 $lvl=16
R3_17 MM19:SRC VSS:59 1.2 $l=0.0150 $w=0.0125 $lvl=16
R3_18 MM23:SRC VSS:62 6.0 $l=0.0150 $w=0.0025 $lvl=16
R3_19 MM23:SRC VSS:59 1.2 $l=0.0150 $w=0.0125 $lvl=16
R3_20 MM11:SRC VSS:61 6.0 $l=0.0150 $w=0.0025 $lvl=16
R3_21 MM11:SRC VSS:58 1.2 $l=0.0150 $w=0.0125 $lvl=16
R3_22 MM15:SRC VSS:61 6.0 $l=0.0150 $w=0.0025 $lvl=16
R3_23 MM15:SRC VSS:58 1.2 $l=0.0150 $w=0.0125 $lvl=16
R3_24 MM6:BULK VSS:45 0.356491 $l=0.4510 $w=0.1400 $lvl=20
R3_25 VSS:11 VSS:56 1.87763 $l=0.0150 $w=0.0250 $lvl=16
R3_26 VSS:11 VSS:53 8.89907 $l=0.0150 $w=0.0200 $lvl=13
R3_27 VSS:12 VSS:57 2.73284 $l=0.0150 $w=0.0225 $lvl=16
R3_28 VSS:12 VSS:52 8.89907 $l=0.0150 $w=0.0200 $lvl=13
R3_29 VSS:13 VSS:60 2.73284 $l=0.0150 $w=0.0225 $lvl=16
R3_30 VSS:13 VSS:40 8.89907 $l=0.0150 $w=0.0200 $lvl=13
R3_31 VSS:14 VSS:15 63.5281 $a=0.00014400 $lvl=30
R3_32 VSS:14 VSS:48 10.4167 $l=0.0300 $w=0.0120 $lvl=9
R3_33 VSS:14 VSS:16 14.5833 $l=0.0420 $w=0.0120 $lvl=9
R3_34 VSS:15 VSS:54 39.6198 $l=0.0300 $w=0.0120 $lvl=14
R3_35 VSS:15 VSS:53 50.1851 $l=0.0420 $w=0.0120 $lvl=14
R3_36 VSS:16 VSS:17 14.5833 $l=0.0420 $w=0.0120 $lvl=9
R3_37 VSS:16 VSS:53 31.764 $a=0.00028800 $lvl=31
R3_38 VSS:17 VSS:18 63.5281 $a=0.00014400 $lvl=30
R3_39 VSS:17 VSS:19 14.5833 $l=0.0420 $w=0.0120 $lvl=9
R3_40 VSS:18 VSS:53 50.1851 $l=0.0420 $w=0.0120 $lvl=14
R3_41 VSS:18 VSS:52 50.1851 $l=0.0420 $w=0.0120 $lvl=14
R3_42 VSS:19 VSS:20 14.5833 $l=0.0420 $w=0.0120 $lvl=9
R3_43 VSS:19 VSS:52 31.764 $a=0.00028800 $lvl=31
R3_44 VSS:20 VSS:21 63.5281 $a=0.00014400 $lvl=30
R3_45 VSS:20 VSS:22 14.5833 $l=0.0420 $w=0.0120 $lvl=9
R3_46 VSS:21 VSS:52 50.1851 $l=0.0420 $w=0.0120 $lvl=14
R3_47 VSS:21 VSS:23 55.4677 $l=0.0420 $w=0.0120 $lvl=14
R3_48 VSS:22 VSS:23 63.5281 $a=0.00014400 $lvl=30
R3_49 VSS:22 VSS:24 14.5833 $l=0.0420 $w=0.0120 $lvl=9
R3_50 VSS:23 VSS:25 55.4677 $l=0.0420 $w=0.0120 $lvl=14
R3_51 VSS:24 VSS:25 63.5281 $a=0.00014400 $lvl=30
R3_52 VSS:24 VSS:26 14.5833 $l=0.0420 $w=0.0120 $lvl=9
R3_53 VSS:25 VSS:27 55.4677 $l=0.0420 $w=0.0120 $lvl=14
R3_54 VSS:26 VSS:27 63.5281 $a=0.00014400 $lvl=30
R3_55 VSS:27 VSS:51 50.1851 $l=0.0420 $w=0.0120 $lvl=14
R3_56 VSS:28 VSS:29 63.5281 $a=0.00014400 $lvl=30
R3_57 VSS:28 VSS:30 14.5833 $l=0.0420 $w=0.0120 $lvl=9
R3_58 VSS:29 VSS:51 50.1851 $l=0.0420 $w=0.0120 $lvl=14
R3_59 VSS:29 VSS:31 55.4677 $l=0.0420 $w=0.0120 $lvl=14
R3_60 VSS:30 VSS:31 63.5281 $a=0.00014400 $lvl=30
R3_61 VSS:30 VSS:32 14.5833 $l=0.0420 $w=0.0120 $lvl=9
R3_62 VSS:31 VSS:33 55.4677 $l=0.0420 $w=0.0120 $lvl=14
R3_63 VSS:32 VSS:33 63.5281 $a=0.00014400 $lvl=30
R3_64 VSS:32 VSS:34 14.5833 $l=0.0420 $w=0.0120 $lvl=9
R3_65 VSS:33 VSS:35 55.4677 $l=0.0420 $w=0.0120 $lvl=14
R3_66 VSS:34 VSS:35 63.5281 $a=0.00014400 $lvl=30
R3_67 VSS:34 VSS:36 14.5833 $l=0.0420 $w=0.0120 $lvl=9
R3_68 VSS:35 VSS:50 50.1851 $l=0.0420 $w=0.0120 $lvl=14
R3_69 VSS:36 VSS:37 14.5833 $l=0.0420 $w=0.0120 $lvl=9
R3_70 VSS:36 VSS:50 31.764 $a=0.00028800 $lvl=31
R3_71 VSS:37 VSS:38 63.5281 $a=0.00014400 $lvl=30
R3_72 VSS:37 VSS:39 14.5833 $l=0.0420 $w=0.0120 $lvl=9
R3_73 VSS:38 VSS:50 50.1851 $l=0.0420 $w=0.0120 $lvl=14
R3_74 VSS:38 VSS:40 50.1851 $l=0.0420 $w=0.0120 $lvl=14
R3_75 VSS:39 VSS:40 31.764 $a=0.00028800 $lvl=31
R3_76 VSS:39 VSS:41 14.5833 $l=0.0420 $w=0.0120 $lvl=9
R3_77 VSS:40 VSS:42 50.1851 $l=0.0420 $w=0.0120 $lvl=14
R3_78 VSS:41 VSS:42 63.5281 $a=0.00014400 $lvl=30
R3_79 VSS:41 VSS:49 10.4167 $l=0.0300 $w=0.0120 $lvl=9
R3_80 VSS:42 VSS:55 39.6198 $l=0.0300 $w=0.0120 $lvl=14
R3_81 VSS:43 VSS:56 1.87763 $l=0.0150 $w=0.0250 $lvl=16
R3_82 VSS:44 VSS:57 2.73284 $l=0.0150 $w=0.0225 $lvl=16
R3_83 VSS:45 VSS:47 0.303571 $l=0.0480 $w=0.1400 $lvl=20
R3_84 VSS:46 VSS:60 2.73284 $l=0.0150 $w=0.0225 $lvl=16
R3_85 VSS:50 VSS:59 11.8654 $l=0.0200 $w=0.0200 $lvl=13
R3_86 VSS:51 VSS:58 11.8654 $l=0.0200 $w=0.0200 $lvl=13
R3_87 VSS:58 VSS:61 0.4 $l=0.0100 $w=0.0250 $lvl=16
R3_88 VSS:59 VSS:62 0.4 $l=0.0100 $w=0.0250 $lvl=16
R3_89 VSS:25 MM6:BULK 0.01 $l=0.0366 $w=100.0000 $lvl=0

*|NET VDD 0.000185761PF
*|P (VDD B 0 0.2000 0.0910) // $llx=0.1990 $lly=0.0900 $urx=0.2010 $ury=0.0900 $lvl=19
*|P (VDD_1 B 0 0.3570 0.1200) // $llx=0.3510 $lly=0.1140 $urx=0.3630 $ury=0.1260 $lvl=33
*|I (MM16:BULK MM16 BULK B 0 0.6720 0.0900) // $llx=0.6720 $lly=0.0900 $urx=0.6720 $ury=0.0900 $lvl=19
*|I (MM16:SRC MM16 SRC B 0 0.6660 0.0900) // $llx=0.6660 $lly=0.0900 $urx=0.6660 $ury=0.0900 $lvl=17
*|I (MM18:BULK MM18 BULK B 0 0.5880 0.0975) // $llx=0.5880 $lly=0.0975 $urx=0.5880 $ury=0.0975 $lvl=19
*|I (MM18:SRC MM18 SRC B 0 0.5820 0.0975) // $llx=0.5820 $lly=0.0975 $urx=0.5820 $ury=0.0975 $lvl=17
*|I (MM20:BULK MM20 BULK B 0 0.5460 0.0975) // $llx=0.5460 $lly=0.0975 $urx=0.5460 $ury=0.0975 $lvl=19
*|I (MM20:SRC MM20 SRC B 0 0.5520 0.0975) // $llx=0.5520 $lly=0.0975 $urx=0.5520 $ury=0.0975 $lvl=17
*|I (MM21:BULK MM21 BULK B 0 0.5040 0.0975) // $llx=0.5040 $lly=0.0975 $urx=0.5040 $ury=0.0975 $lvl=19
*|I (MM9:BULK MM9 BULK B 0 0.4620 0.0975) // $llx=0.4620 $lly=0.0975 $urx=0.4620 $ury=0.0975 $lvl=19
*|I (MM8:BULK MM8 BULK B 0 0.3780 0.0975) // $llx=0.3780 $lly=0.0975 $urx=0.3780 $ury=0.0975 $lvl=19
*|I (MM8:SRC MM8 SRC B 0 0.3720 0.0975) // $llx=0.3720 $lly=0.0975 $urx=0.3720 $ury=0.0975 $lvl=17
*|I (MM12:BULK MM12 BULK B 0 0.3360 0.0975) // $llx=0.3360 $lly=0.0975 $urx=0.3360 $ury=0.0975 $lvl=19
*|I (MM12:SRC MM12 SRC B 0 0.3420 0.0975) // $llx=0.3420 $lly=0.0975 $urx=0.3420 $ury=0.0975 $lvl=17
*|I (MM13:BULK MM13 BULK B 0 0.2520 0.0975) // $llx=0.2520 $lly=0.0975 $urx=0.2520 $ury=0.0975 $lvl=19
*|I (MM5:BULK MM5 BULK B 0 0.2100 0.0900) // $llx=0.2100 $lly=0.0900 $urx=0.2100 $ury=0.0900 $lvl=19
*|I (MM4:BULK MM4 BULK B 0 0.1680 0.0900) // $llx=0.1680 $lly=0.0900 $urx=0.1680 $ury=0.0900 $lvl=19
*|I (MM4:SRC MM4 SRC B 0 0.1620 0.0900) // $llx=0.1620 $lly=0.0900 $urx=0.1620 $ury=0.0900 $lvl=17
*|I (MM3:BULK MM3 BULK B 0 0.0840 0.0900) // $llx=0.0840 $lly=0.0900 $urx=0.0840 $ury=0.0900 $lvl=19
*|I (MM3:SRC MM3 SRC B 0 0.0780 0.0900) // $llx=0.0780 $lly=0.0900 $urx=0.0780 $ury=0.0900 $lvl=17
*|I (MM2:BULK MM2 BULK B 0 0.0420 0.0900) // $llx=0.0420 $lly=0.0900 $urx=0.0420 $ury=0.0900 $lvl=19
*|I (MM2:SRC MM2 SRC B 0 0.0480 0.0900) // $llx=0.0480 $lly=0.0900 $urx=0.0480 $ury=0.0900 $lvl=17
*|S (VDD:22 0.0630 0.0750) // $llx=0.0530 $lly=0.0750 $urx=0.0730 $ury=0.0750 $lvl=15
*|S (VDD:23 0.1470 0.0750) // $llx=0.1370 $lly=0.0750 $urx=0.1570 $ury=0.0750 $lvl=15
*|S (VDD:24 0.6510 0.0750) // $llx=0.6410 $lly=0.0750 $urx=0.6610 $ury=0.0750 $lvl=15
*|S (VDD:25 0.0210 0.1200) // $llx=0.0150 $lly=0.1140 $urx=0.0270 $ury=0.1260 $lvl=9
*|S (VDD:26 0.0210 0.1200) // $llx=0.0150 $lly=0.1140 $urx=0.0270 $ury=0.1260 $lvl=14
*|S (VDD:27 0.0630 0.1200) // $llx=0.0570 $lly=0.1140 $urx=0.0690 $ury=0.1260 $lvl=9
*|S (VDD:28 0.0630 0.1200) // $llx=0.0530 $lly=0.1140 $urx=0.0730 $ury=0.1260 $lvl=13
*|S (VDD:29 0.1050 0.1200) // $llx=0.0990 $lly=0.1140 $urx=0.1110 $ury=0.1260 $lvl=9
*|S (VDD:30 0.1050 0.1200) // $llx=0.0990 $lly=0.1140 $urx=0.1110 $ury=0.1260 $lvl=14
*|S (VDD:31 0.1470 0.1200) // $llx=0.1410 $lly=0.1140 $urx=0.1530 $ury=0.1260 $lvl=9
*|S (VDD:32 0.1470 0.1200) // $llx=0.1370 $lly=0.1140 $urx=0.1570 $ury=0.1260 $lvl=13
*|S (VDD:33 0.1890 0.1200) // $llx=0.1830 $lly=0.1140 $urx=0.1950 $ury=0.1260 $lvl=9
*|S (VDD:34 0.1890 0.1200) // $llx=0.1830 $lly=0.1140 $urx=0.1950 $ury=0.1260 $lvl=14
*|S (VDD:35 0.2310 0.1200) // $llx=0.2250 $lly=0.1140 $urx=0.2370 $ury=0.1260 $lvl=9
*|S (VDD:36 0.2310 0.1200) // $llx=0.2250 $lly=0.1140 $urx=0.2370 $ury=0.1260 $lvl=14
*|S (VDD:37 0.2730 0.1200) // $llx=0.2670 $lly=0.1140 $urx=0.2790 $ury=0.1260 $lvl=9
*|S (VDD:38 0.2730 0.1200) // $llx=0.2670 $lly=0.1140 $urx=0.2790 $ury=0.1260 $lvl=14
*|S (VDD:39 0.3150 0.1200) // $llx=0.3090 $lly=0.1140 $urx=0.3210 $ury=0.1260 $lvl=9
*|S (VDD:40 0.3150 0.1200) // $llx=0.3090 $lly=0.1140 $urx=0.3210 $ury=0.1260 $lvl=14
*|S (VDD:41 0.3570 0.1200) // $llx=0.3470 $lly=0.1140 $urx=0.3670 $ury=0.1260 $lvl=13
*|S (VDD:42 0.3990 0.1200) // $llx=0.3930 $lly=0.1140 $urx=0.4050 $ury=0.1260 $lvl=9
*|S (VDD:43 0.3990 0.1200) // $llx=0.3930 $lly=0.1140 $urx=0.4050 $ury=0.1260 $lvl=14
*|S (VDD:44 0.4410 0.1200) // $llx=0.4350 $lly=0.1140 $urx=0.4470 $ury=0.1260 $lvl=9
*|S (VDD:45 0.4410 0.1200) // $llx=0.4350 $lly=0.1140 $urx=0.4470 $ury=0.1260 $lvl=14
*|S (VDD:46 0.4830 0.1200) // $llx=0.4770 $lly=0.1140 $urx=0.4890 $ury=0.1260 $lvl=9
*|S (VDD:47 0.4830 0.1200) // $llx=0.4770 $lly=0.1140 $urx=0.4890 $ury=0.1260 $lvl=14
*|S (VDD:48 0.5250 0.1200) // $llx=0.5190 $lly=0.1140 $urx=0.5310 $ury=0.1260 $lvl=9
*|S (VDD:49 0.5250 0.1200) // $llx=0.5190 $lly=0.1140 $urx=0.5310 $ury=0.1260 $lvl=14
*|S (VDD:50 0.5670 0.1200) // $llx=0.5610 $lly=0.1140 $urx=0.5730 $ury=0.1260 $lvl=9
*|S (VDD:51 0.5670 0.1200) // $llx=0.5570 $lly=0.1140 $urx=0.5770 $ury=0.1260 $lvl=13
*|S (VDD:52 0.6090 0.1200) // $llx=0.6030 $lly=0.1140 $urx=0.6150 $ury=0.1260 $lvl=9
*|S (VDD:53 0.6090 0.1200) // $llx=0.6030 $lly=0.1140 $urx=0.6150 $ury=0.1260 $lvl=14
*|S (VDD:54 0.6510 0.1200) // $llx=0.6450 $lly=0.1140 $urx=0.6570 $ury=0.1260 $lvl=9
*|S (VDD:55 0.6510 0.1200) // $llx=0.6410 $lly=0.1140 $urx=0.6610 $ury=0.1260 $lvl=13
*|S (VDD:56 0.6930 0.1200) // $llx=0.6870 $lly=0.1140 $urx=0.6990 $ury=0.1260 $lvl=9
*|S (VDD:57 0.6930 0.1200) // $llx=0.6870 $lly=0.1140 $urx=0.6990 $ury=0.1260 $lvl=14
*|S (VDD:58 0.0360 0.0900) // $llx=0.0360 $lly=0.0600 $urx=0.0360 $ury=0.1200 $lvl=18
*|S (VDD:59 0.0055 0.0900) // $llx=0.0000 $lly=0.0600 $urx=0.0110 $ury=0.1200 $lvl=18
*|S (VDD:60 0.0780 0.0900) // $llx=0.0780 $lly=0.0600 $urx=0.0780 $ury=0.1200 $lvl=18
*|S (VDD:61 0.0480 0.0600) // $llx=0.0480 $lly=0.0600 $urx=0.0480 $ury=0.1200 $lvl=19
*|S (VDD:62 0.0630 0.1050) // $llx=0.0530 $lly=0.1050 $urx=0.0730 $ury=0.1050 $lvl=15
*|S (VDD:63 0.1150 0.0900) // $llx=0.1150 $lly=0.0600 $urx=0.1150 $ury=0.1200 $lvl=18
*|S (VDD:64 0.0900 0.0600) // $llx=0.0900 $lly=0.0600 $urx=0.0900 $ury=0.1200 $lvl=19
*|S (VDD:65 0.1620 0.0900) // $llx=0.1620 $lly=0.0600 $urx=0.1620 $ury=0.1200 $lvl=18
*|S (VDD:66 0.1370 0.0600) // $llx=0.1370 $lly=0.0600 $urx=0.1370 $ury=0.1200 $lvl=19
*|S (VDD:67 0.1470 0.1050) // $llx=0.1370 $lly=0.1050 $urx=0.1570 $ury=0.1050 $lvl=15
*|S (VDD:68 0.2160 0.0600) // $llx=0.2160 $lly=0.0600 $urx=0.2160 $ury=0.1200 $lvl=19
*|S (VDD:69 0.3050 0.0600) // $llx=0.3050 $lly=0.0600 $urx=0.3300 $ury=0.1200 $lvl=19
*|S (VDD:70 0.3420 0.0600) // $llx=0.3420 $lly=0.0600 $urx=0.3720 $ury=0.1200 $lvl=19
*|S (VDD:71 0.3840 0.0600) // $llx=0.3840 $lly=0.0600 $urx=0.4090 $ury=0.1200 $lvl=19
*|S (VDD:72 0.4310 0.0600) // $llx=0.4310 $lly=0.0600 $urx=0.4560 $ury=0.1200 $lvl=19
*|S (VDD:73 0.4680 0.0600) // $llx=0.4680 $lly=0.0600 $urx=0.4980 $ury=0.1200 $lvl=19
*|S (VDD:74 0.5100 0.0600) // $llx=0.5100 $lly=0.0600 $urx=0.5400 $ury=0.1200 $lvl=19
*|S (VDD:75 0.5520 0.0600) // $llx=0.5520 $lly=0.0600 $urx=0.5820 $ury=0.1200 $lvl=19
*|S (VDD:76 0.5940 0.0600) // $llx=0.5940 $lly=0.0600 $urx=0.6190 $ury=0.1200 $lvl=19
*|S (VDD:77 0.6410 0.0600) // $llx=0.6410 $lly=0.0600 $urx=0.6410 $ury=0.1200 $lvl=19
*|S (VDD:78 0.6510 0.1050) // $llx=0.6410 $lly=0.1050 $urx=0.6610 $ury=0.1050 $lvl=15
*|S (VDD:79 0.7030 0.0900) // $llx=0.7030 $lly=0.0600 $urx=0.7140 $ury=0.1200 $lvl=18
*|S (VDD:80 -0.0090 0.1200) // $llx=-0.0090 $lly=0.1140 $urx=-0.0090 $ury=0.1260 $lvl=9
*|S (VDD:81 0.7230 0.1200) // $llx=0.7230 $lly=0.1140 $urx=0.7230 $ury=0.1260 $lvl=9
*|S (VDD:82 -0.0090 0.1200) // $llx=-0.0090 $lly=0.1140 $urx=-0.0090 $ury=0.1260 $lvl=14
*|S (VDD:83 0.7230 0.1200) // $llx=0.7230 $lly=0.1140 $urx=0.7230 $ury=0.1260 $lvl=14
*|S (VDD:84 0.0630 0.0900) // $llx=0.0530 $lly=0.0900 $urx=0.0730 $ury=0.0900 $lvl=15
*|S (VDD:85 0.1470 0.0900) // $llx=0.1370 $lly=0.0900 $urx=0.1570 $ury=0.0900 $lvl=15
*|S (VDD:86 0.3570 0.1000) // $llx=0.3470 $lly=0.0950 $urx=0.3670 $ury=0.1050 $lvl=15
*|S (VDD:87 0.5670 0.1000) // $llx=0.5570 $lly=0.0950 $urx=0.5770 $ury=0.1050 $lvl=15
*|S (VDD:88 0.6510 0.0900) // $llx=0.6410 $lly=0.0900 $urx=0.6610 $ury=0.0900 $lvl=15
*|S (VDD:89 0.3570 0.0900) // $llx=0.3470 $lly=0.0900 $urx=0.3670 $ury=0.0900 $lvl=17
*|S (VDD:90 0.5670 0.0900) // $llx=0.5570 $lly=0.0900 $urx=0.5770 $ury=0.0900 $lvl=17
C4_1 VDD:55 CK:6 5.63154e-20
C4_2 VDD:80 CK:6 1.71069e-21
C4_3 VDD:81 CK:6 1.71069e-21
C4_4 VDD:55 CK:7 2.22232e-19
C4_5 VDD:80 CK:7 1.88153e-20
C4_6 VDD:81 CK:7 1.88153e-20
C4_7 VDD:55 CK:8 1.497e-19
C4_8 VDD:80 CK:8 2.07408e-20
C4_9 VDD:81 CK:8 2.07408e-20
C4_10 VDD:55 CK:9 2.61366e-19
C4_11 VDD:61 CK:9 3.44969e-21
C4_12 VDD:62 CK:9 1.67472e-19
C4_13 VDD:80 CK:9 2.42651e-21
C4_14 VDD:81 CK:9 2.42651e-21
C4_15 VDD:22 CK:11 1.82767e-20
C4_16 VDD:28 CK:11 9.82626e-20
C4_17 VDD:60 CK:11 1.22729e-20
C4_18 VDD:61 CK:11 4.10524e-20
C4_19 VDD:62 CK:11 9.00111e-20
C4_20 VDD:80 CK:11 1.057e-18
C4_21 VDD:81 CK:11 1.057e-18
C4_22 VDD:80 D:4 2.07025e-21
C4_23 VDD:81 D:4 2.07025e-21
C4_24 VDD:55 D:6 6.00661e-20
C4_25 VDD:80 D:6 2.69463e-21
C4_26 VDD:81 D:6 2.69463e-21
C4_27 VDD:55 D:7 2.31048e-19
C4_28 VDD:80 D:7 1.46256e-20
C4_29 VDD:81 D:7 1.46256e-20
C4_30 VDD:55 D:8 1.50181e-19
C4_31 VDD:80 D:8 1.28947e-20
C4_32 VDD:81 D:8 1.28947e-20
C4_33 VDD:32 D:9 2.21646e-18
C4_34 VDD:55 D:9 2.86326e-19
C4_35 VDD:66 D:9 1.14344e-20
C4_36 VDD:67 D:9 2.11801e-19
C4_37 VDD:80 D:9 3.54091e-20
C4_38 VDD:81 D:9 3.54091e-20
C4_39 VDD:23 D:11 1.0966e-19
C4_40 VDD:32 D:11 3.42638e-19
C4_41 VDD:65 D:11 3.04193e-20
C4_42 VDD:66 D:11 3.04737e-20
C4_43 VDD:67 D:11 1.00835e-19
C4_44 VDD:80 D:11 9.88725e-19
C4_45 VDD:81 D:11 9.88725e-19
C4_46 MM16:BULK MM6:BULK 1.56666e-20
C4_47 VDD:22 MM6:BULK 8.048e-19
C4_48 VDD:23 MM6:BULK 8.0347e-19
C4_49 VDD:28 MM6:BULK 1.32744e-18
C4_50 VDD:32 MM6:BULK 1.33544e-18
C4_51 VDD:41 MM6:BULK 8.56441e-19
C4_52 VDD:51 MM6:BULK 8.56441e-19
C4_53 VDD:77 MM6:BULK 6.69962e-20
C4_54 VDD:80 MM6:BULK 2.17634e-18
C4_55 VDD:81 MM6:BULK 2.17634e-18
C4_56 VDD:86 MM6:BULK 2.66933e-19
C4_57 VDD:87 MM6:BULK 2.66933e-19
C4_58 MM13:BULK VSS:40 1.73319e-21
C4_59 VDD:32 VSS:40 6.85725e-21
C4_60 VDD:55 VSS:40 3.31165e-20
C4_61 VDD:59 VSS:40 1.11515e-19
C4_62 VDD:66 VSS:40 1.25484e-19
C4_63 VDD:69 VSS:40 1.25323e-21
C4_64 VDD:70 VSS:40 1.17691e-21
C4_65 VDD:71 VSS:40 1.17691e-21
C4_66 VDD:72 VSS:40 1.27073e-21
C4_67 VDD:73 VSS:40 2.9101e-21
C4_68 VDD:74 VSS:40 2.42647e-21
C4_69 VDD:75 VSS:40 1.17691e-21
C4_70 VDD:80 VSS:40 5.03134e-20
C4_71 VDD:81 VSS:40 5.03134e-20
C4_72 VDD:55 VSS:48 1.68652e-20
C4_73 VDD:80 VSS:48 1.09251e-18
C4_74 VDD:55 VSS:49 1.68652e-20
C4_75 VDD:81 VSS:49 1.09251e-18
C4_76 VDD:75 VSS:50 1.98163e-21
C4_77 VDD:70 VSS:51 1.98163e-21
C4_78 VDD:70 VSS:58 2.62953e-21
C4_79 VDD:75 VSS:59 2.62953e-21
Cg4_80 VDD 0 2.22294e-18
Cg4_81 MM16:BULK 0 2.47421e-18
Cg4_82 MM13:BULK 0 2.84255e-18
Cg4_83 VDD:22 0 2.75468e-19
Cg4_84 VDD:23 0 9.49249e-19
Cg4_85 VDD:24 0 8.89008e-19
Cg4_86 VDD:28 0 7.58229e-19
Cg4_87 VDD:32 0 7.93988e-19
Cg4_88 VDD:41 0 5.25968e-19
Cg4_89 VDD:51 0 5.25968e-19
Cg4_90 VDD:55 0 3.40684e-17
Cg4_91 VDD:58 0 2.58844e-19
Cg4_92 VDD:59 0 1.85555e-18
Cg4_93 VDD:60 0 3.10612e-19
Cg4_94 VDD:61 0 1.91238e-18
Cg4_95 VDD:62 0 6.08929e-19
Cg4_96 VDD:63 0 2.58844e-19
Cg4_97 VDD:64 0 1.74986e-18
Cg4_98 VDD:65 0 2.58844e-19
Cg4_99 VDD:66 0 2.63187e-18
Cg4_100 VDD:67 0 5.17687e-19
Cg4_101 VDD:68 0 1.75494e-18
Cg4_102 VDD:69 0 2.94064e-18
Cg4_103 VDD:70 0 2.5299e-18
Cg4_104 VDD:71 0 2.26113e-18
Cg4_105 VDD:72 0 2.9288e-18
Cg4_106 VDD:73 0 2.57537e-18
Cg4_107 VDD:74 0 2.63352e-18
Cg4_108 VDD:75 0 2.49586e-18
Cg4_109 VDD:76 0 2.21475e-18
Cg4_110 VDD:77 0 2.61742e-18
Cg4_111 VDD:78 0 5.17687e-19
Cg4_112 VDD:79 0 2.10096e-18
Cg4_113 VDD:80 0 9.66802e-18
Cg4_114 VDD:81 0 9.66802e-18
Cg4_115 VDD:86 0 3.74025e-19
Cg4_116 VDD:87 0 3.67419e-19
R4_1 VDD MM4:BULK 0.308333 $l=0.0320 $w=0.0600 $lvl=18
R4_2 VDD MM5:BULK 0.35 $l=0.0100 $w=0.0600 $lvl=18
R4_3 MM16:BULK VDD:79 0.545216 $l=0.0310 $w=0.0600 $lvl=18
R4_4 MM16:BULK VDD:77 0.516667 $l=0.0310 $w=0.0600 $lvl=18
R4_5 MM16:SRC VDD:78 2.0 $l=0.0150 $w=0.0075 $lvl=17
R4_6 MM16:SRC VDD:24 2.0 $l=0.0150 $w=0.0075 $lvl=17
R4_7 MM16:SRC VDD:88 1.0 $l=0.0150 $w=0.0150 $lvl=17
R4_8 MM18:BULK VDD:75 0.35 $l=0.0360 $w=0.0600 $lvl=18