*
*|DSPF 1.3
*|DESIGN DFFHx1
*|DATE "Tue Oct 15 21:10:45 2024"
*|VENDOR "Synopsys"
*|PROGRAM "StarRC"
*|VERSION "V-2023.12-SP5"
*|DIVIDER .
*|DELIMITER :
**FORMAT SPF
*

** COMMENTS

** OPERATING_TEMPERATURE 25
** GLOBAL_TEMPERATURE 25
** 
** TCAD_GRD_FILE /home/gtcad/ctsai314/ITF_Modification/0_reference/3nm_FF_noBPR.nxtgrd
**   TCAD_TIME_STAMP Tue Sep 3 21:56:12 2024
**   TCADGRD_VERSION 89

.SUBCKT DFFHx1 CK D QN RESET SET VDD VSS

*|GROUND_NET 0

*LAYER_MAP

*0 SUBSTRATE
*1 m9    ITF=M9
*2 m8    ITF=M8
*3 m7    ITF=M7
*4 m6    ITF=M6
*5 m5    ITF=M5
*6 m4    ITF=M4
*7 m3    ITF=M3
*8 m2    ITF=M2
*9 m1    ITF=M1
*10 fpoly    ITF=Gate
*11 ngate    ITF=Gate
*12 pgate    ITF=Gate
*13 lisd    ITF=LISD
*14 lig    ITF=LIG
*15 sdt    ITF=SDT
*16 nsd    ITF=Active
*17 psd    ITF=Active
*18 pselect    ITF=Active
*19 well    ITF=Active
*20 sub    ITF=Active
*21 nselect    ITF=Active
*22 v8    ITF=V8
*23 v7    ITF=V7
*24 v6    ITF=V6
*25 v5    ITF=V5
*26 v4    ITF=V4
*27 v3    ITF=V3
*28 v2    ITF=V2
*29 v1    ITF=V1
*30 v0lig    ITF=V0LIG
*31 v0lisd    ITF=V0LISD
*32 well_pin    ITF=Active
*33 M1_pin    ITF=M1
*34 M2_pin    ITF=M2
*35 M3_pin    ITF=M3
*36 M4_pin    ITF=M4
*37 M5_pin    ITF=M5
*38 M6_pin    ITF=M6
*39 M7_pin    ITF=M7
*40 M8_pin    ITF=M8
*41 M9_pin    ITF=M9

*|NET SET 7.48721e-05PF
*|P (SET B 0 0.4620 0.0240) // $llx=0.4560 $lly=0.0180 $urx=0.4680 $ury=0.0300 $lvl=33
*|I (MM38:GATE MM38 GATE I 1.8e-19 0.7560 0.0975) // $llx=0.7560 $lly=0.0975 $urx=0.7560 $ury=0.0975 $lvl=12
*|I (MM1:GATE MM1 GATE I 1.8e-19 0.4620 0.0975) // $llx=0.4620 $lly=0.0975 $urx=0.4620 $ury=0.0975 $lvl=12
*|I (MM34:GATE MM34 GATE I 1.8e-19 0.7560 0.0225) // $llx=0.7560 $lly=0.0225 $urx=0.7560 $ury=0.0225 $lvl=11
*|I (MM32:GATE MM32 GATE I 1.8e-19 0.4620 0.0225) // $llx=0.4620 $lly=0.0225 $urx=0.4620 $ury=0.0225 $lvl=11
*|S (SET:6 0.4620 0.0150) // $llx=0.4560 $lly=0.0150 $urx=0.4680 $ury=0.0150 $lvl=10
*|S (SET:7 0.4620 0.0900) // $llx=0.4560 $lly=0.0900 $urx=0.4680 $ury=0.0900 $lvl=10
*|S (SET:8 0.4620 0.1050) // $llx=0.4560 $lly=0.1050 $urx=0.4680 $ury=0.1050 $lvl=12
*|S (SET:9 0.4620 0.1100) // $llx=0.4560 $lly=0.1100 $urx=0.4680 $ury=0.1100 $lvl=10
*|S (SET:10 0.7560 0.0150) // $llx=0.7500 $lly=0.0150 $urx=0.7620 $ury=0.0150 $lvl=10
*|S (SET:11 0.7560 0.0900) // $llx=0.7500 $lly=0.0900 $urx=0.7620 $ury=0.0900 $lvl=10
*|S (SET:12 0.7560 0.1050) // $llx=0.7500 $lly=0.1050 $urx=0.7620 $ury=0.1050 $lvl=12
*|S (SET:13 0.7560 0.1100) // $llx=0.7500 $lly=0.1100 $urx=0.7620 $ury=0.1100 $lvl=10
*|S (SET:14 0.5040 0.0240) // $llx=0.4980 $lly=0.0180 $urx=0.5100 $ury=0.0300 $lvl=8
*|S (SET:15 0.5040 0.0240) // $llx=0.4980 $lly=0.0180 $urx=0.5100 $ury=0.0300 $lvl=9
*|S (SET:16 0.6300 0.0240) // $llx=0.6240 $lly=0.0180 $urx=0.6360 $ury=0.0300 $lvl=8
*|S (SET:17 0.6300 0.0240) // $llx=0.6240 $lly=0.0180 $urx=0.6360 $ury=0.0300 $lvl=9
*|S (SET:18 0.7560 0.0240) // $llx=0.7500 $lly=0.0180 $urx=0.7620 $ury=0.0300 $lvl=9
*|S (SET:19 0.5100 0.0240) // $llx=0.5100 $lly=0.0180 $urx=0.5100 $ury=0.0300 $lvl=9
*|S (SET:20 0.6240 0.0240) // $llx=0.6240 $lly=0.0180 $urx=0.6240 $ury=0.0300 $lvl=9
*|S (SET:21 0.4980 0.0240) // $llx=0.4980 $lly=0.0180 $urx=0.4980 $ury=0.0300 $lvl=8
*|S (SET:22 0.4620 0.0100) // $llx=0.4560 $lly=0.0100 $urx=0.4680 $ury=0.0100 $lvl=10
*|S (SET:23 0.7560 0.0100) // $llx=0.7500 $lly=0.0100 $urx=0.7620 $ury=0.0100 $lvl=10
*|S (SET:24 0.7620 0.0240) // $llx=0.7620 $lly=0.0180 $urx=0.7620 $ury=0.0300 $lvl=9
*|S (SET:25 0.6360 0.0240) // $llx=0.6360 $lly=0.0180 $urx=0.6360 $ury=0.0300 $lvl=8
Cg1_1 MM34:GATE 0 3.92148e-20
Cg1_2 MM32:GATE 0 3.92148e-20
Cg1_3 SET:6 0 1.83487e-19
Cg1_4 SET:7 0 1.10527e-18
Cg1_5 SET:8 0 5.50101e-19
Cg1_6 SET:9 0 3.80581e-19
Cg1_7 SET:10 0 1.83487e-19
Cg1_8 SET:11 0 1.14475e-18
Cg1_9 SET:12 0 5.34779e-19
Cg1_10 SET:13 0 3.79235e-19
Cg1_11 SET:19 0 1.06285e-18
Cg1_12 SET:20 0 2.93145e-18
Cg1_13 SET:21 0 2.38276e-18
R1_1 SET SET:15 15.4514 $l=0.0420 $w=0.0120 $lvl=9
R1_2 SET MM32:GATE 63.5281 $a=0.00014400 $lvl=30
R1_3 MM38:GATE SET:12 3.28947 $l=0.0075 $w=0.0120 $lvl=12
R1_4 MM38:GATE SET:11 3.28947 $l=0.0075 $w=0.0120 $lvl=12
R1_5 MM1:GATE SET:8 3.28947 $l=0.0075 $w=0.0120 $lvl=12
R1_6 MM1:GATE SET:7 3.28947 $l=0.0075 $w=0.0120 $lvl=12
R1_7 MM34:GATE SET:18 63.5281 $a=0.00014400 $lvl=30
R1_8 MM34:GATE SET:11 28.9474 $l=0.0675 $w=0.0120 $lvl=10
R1_9 MM34:GATE SET:10 3.94737 $l=0.0075 $w=0.0120 $lvl=11
R1_10 MM32:GATE SET:7 28.9474 $l=0.0675 $w=0.0120 $lvl=10
R1_11 MM32:GATE SET:6 3.94737 $l=0.0075 $w=0.0120 $lvl=11
R1_12 SET:6 SET:22 2.19298 $l=0.0050 $w=0.0120 $lvl=10
R1_13 SET:8 SET:9 2.19298 $l=0.0050 $w=0.0120 $lvl=10
R1_14 SET:10 SET:23 2.19298 $l=0.0050 $w=0.0120 $lvl=10
R1_15 SET:12 SET:13 2.19298 $l=0.0050 $w=0.0120 $lvl=10
R1_16 SET:14 SET:15 63.5281 $a=0.00014400 $lvl=29
R1_17 SET:14 SET:21 2.08333 $l=0.0060 $w=0.0120 $lvl=8
R1_18 SET:14 SET:16 43.75 $l=0.1260 $w=0.0120 $lvl=8
R1_19 SET:15 SET:19 2.08333 $l=0.0060 $w=0.0120 $lvl=9
R1_20 SET:16 SET:17 63.5281 $a=0.00014400 $lvl=29
R1_21 SET:16 SET:25 2.08333 $l=0.0060 $w=0.0120 $lvl=8
R1_22 SET:17 SET:20 2.08333 $l=0.0060 $w=0.0120 $lvl=9
R1_23 SET:17 SET:18 43.75 $l=0.1260 $w=0.0120 $lvl=9
R1_24 SET:18 SET:24 2.08333 $l=0.0060 $w=0.0120 $lvl=9

*|NET RESET 7.27536e-05PF
*|P (RESET B 0 0.4200 0.0960) // $llx=0.4140 $lly=0.0900 $urx=0.4260 $ury=0.1020 $lvl=33
*|I (MM29:GATE MM29 GATE I 1.8e-19 0.4200 0.0225) // $llx=0.4200 $lly=0.0225 $urx=0.4200 $ury=0.0225 $lvl=11
*|I (MM28:GATE MM28 GATE I 1.8e-19 0.7140 0.0975) // $llx=0.7140 $lly=0.0975 $urx=0.7140 $ury=0.0975 $lvl=12
*|I (MM22:GATE MM22 GATE I 1.8e-19 0.4200 0.0975) // $llx=0.4200 $lly=0.0975 $urx=0.4200 $ury=0.0975 $lvl=12
*|I (MM31:GATE MM31 GATE I 1.8e-19 0.7140 0.0225) // $llx=0.7140 $lly=0.0225 $urx=0.7140 $ury=0.0225 $lvl=11
*|S (RESET:6 0.4200 0.0150) // $llx=0.4140 $lly=0.0150 $urx=0.4260 $ury=0.0150 $lvl=10
*|S (RESET:7 0.4200 0.0300) // $llx=0.4140 $lly=0.0300 $urx=0.4260 $ury=0.0300 $lvl=11
*|S (RESET:8 0.4200 0.1050) // $llx=0.4140 $lly=0.1050 $urx=0.4260 $ury=0.1050 $lvl=12
*|S (RESET:9 0.4200 0.1100) // $llx=0.4140 $lly=0.1100 $urx=0.4260 $ury=0.1100 $lvl=10
*|S (RESET:10 0.7140 0.0150) // $llx=0.7080 $lly=0.0150 $urx=0.7200 $ury=0.0150 $lvl=10
*|S (RESET:11 0.7140 0.0300) // $llx=0.7080 $lly=0.0300 $urx=0.7200 $ury=0.0300 $lvl=11
*|S (RESET:12 0.7140 0.1050) // $llx=0.7080 $lly=0.1050 $urx=0.7200 $ury=0.1050 $lvl=12
*|S (RESET:13 0.7140 0.1100) // $llx=0.7080 $lly=0.1100 $urx=0.7200 $ury=0.1100 $lvl=10
*|S (RESET:14 0.5040 0.0960) // $llx=0.4980 $lly=0.0900 $urx=0.5100 $ury=0.1020 $lvl=8
*|S (RESET:15 0.5040 0.0960) // $llx=0.4980 $lly=0.0900 $urx=0.5100 $ury=0.1020 $lvl=9
*|S (RESET:16 0.6300 0.0960) // $llx=0.6240 $lly=0.0900 $urx=0.6360 $ury=0.1020 $lvl=8
*|S (RESET:17 0.6300 0.0960) // $llx=0.6240 $lly=0.0900 $urx=0.6360 $ury=0.1020 $lvl=9
*|S (RESET:18 0.7140 0.0960) // $llx=0.7080 $lly=0.0900 $urx=0.7200 $ury=0.1020 $lvl=9
*|S (RESET:19 0.5100 0.0960) // $llx=0.5100 $lly=0.0900 $urx=0.5100 $ury=0.1020 $lvl=9
*|S (RESET:20 0.6240 0.0960) // $llx=0.6240 $lly=0.0900 $urx=0.6240 $ury=0.1020 $lvl=9
*|S (RESET:21 0.4980 0.0960) // $llx=0.4980 $lly=0.0900 $urx=0.4980 $ury=0.1020 $lvl=8
*|S (RESET:22 0.4200 0.0100) // $llx=0.4140 $lly=0.0100 $urx=0.4260 $ury=0.0100 $lvl=10
*|S (RESET:23 0.7140 0.0100) // $llx=0.7080 $lly=0.0100 $urx=0.7200 $ury=0.0100 $lvl=10
*|S (RESET:24 0.7200 0.0960) // $llx=0.7200 $lly=0.0900 $urx=0.7200 $ury=0.1020 $lvl=9
*|S (RESET:25 0.6360 0.0960) // $llx=0.6360 $lly=0.0900 $urx=0.6360 $ury=0.1020 $lvl=8
Cg2_1 MM28:GATE 0 8.84576e-19
Cg2_2 MM22:GATE 0 8.21149e-19
Cg2_3 RESET:6 0 6.66437e-20
Cg2_4 RESET:7 0 1.4313e-19
Cg2_5 RESET:8 0 2.46536e-19
Cg2_6 RESET:9 0 1.74064e-19
Cg2_7 RESET:10 0 8.31139e-20
Cg2_8 RESET:11 0 1.71446e-19
Cg2_9 RESET:12 0 2.46536e-19
Cg2_10 RESET:13 0 1.74064e-19
Cg2_11 RESET:19 0 2.4381e-18
Cg2_12 RESET:20 0 2.55777e-18
Cg2_13 RESET:21 0 2.37659e-18
R2_1 RESET RESET:15 30.0347 $l=0.0840 $w=0.0120 $lvl=9
R2_2 RESET MM22:GATE 63.5281 $a=0.00014400 $lvl=30
R2_3 MM29:GATE RESET:7 3.28947 $l=0.0075 $w=0.0120 $lvl=11
R2_4 MM29:GATE RESET:6 3.28947 $l=0.0075 $w=0.0120 $lvl=11
R2_5 MM28:GATE RESET:18 63.5281 $a=0.00014400 $lvl=30
R2_6 MM28:GATE RESET:12 3.94737 $l=0.0075 $w=0.0120 $lvl=12
R2_7 MM28:GATE RESET:11 27.9386 $l=0.0675 $w=0.0120 $lvl=10
R2_8 MM22:GATE RESET:8 3.94737 $l=0.0075 $w=0.0120 $lvl=12
R2_9 MM22:GATE RESET:7 27.9386 $l=0.0675 $w=0.0120 $lvl=10
R2_10 MM31:GATE RESET:11 3.28947 $l=0.0075 $w=0.0120 $lvl=11
R2_11 MM31:GATE RESET:10 3.28947 $l=0.0075 $w=0.0120 $lvl=11
R2_12 RESET:6 RESET:22 2.19298 $l=0.0050 $w=0.0120 $lvl=10
R2_13 RESET:8 RESET:9 2.19298 $l=0.0050 $w=0.0120 $lvl=10
R2_14 RESET:10 RESET:23 2.19298 $l=0.0050 $w=0.0120 $lvl=10
R2_15 RESET:12 RESET:13 2.19298 $l=0.0050 $w=0.0120 $lvl=10
R2_16 RESET:14 RESET:15 63.5281 $a=0.00014400 $lvl=29
R2_17 RESET:14 RESET:21 2.08333 $l=0.0060 $w=0.0120 $lvl=8
R2_18 RESET:14 RESET:16 43.75 $l=0.1260 $w=0.0120 $lvl=8
R2_19 RESET:15 RESET:19 2.08333 $l=0.0060 $w=0.0120 $lvl=9
R2_20 RESET:16 RESET:17 63.5281 $a=0.00014400 $lvl=29
R2_21 RESET:16 RESET:25 2.08333 $l=0.0060 $w=0.0120 $lvl=8
R2_22 RESET:17 RESET:20 2.08333 $l=0.0060 $w=0.0120 $lvl=9
R2_23 RESET:17 RESET:18 29.1667 $l=0.0840 $w=0.0120 $lvl=9
R2_24 RESET:18 RESET:24 2.08333 $l=0.0060 $w=0.0120 $lvl=9

*|NET CK 2.22643e-05PF
*|P (CK B 0 0.0490 0.0600) // $llx=0.0430 $lly=0.0540 $urx=0.0550 $ury=0.0660 $lvl=33
*|I (MM12:GATE MM12 GATE I 3.6e-19 0.0420 0.0300) // $llx=0.0420 $lly=0.0300 $urx=0.0420 $ury=0.0300 $lvl=11
*|I (MM11:GATE MM11 GATE I 3.6e-19 0.0420 0.0900) // $llx=0.0420 $lly=0.0900 $urx=0.0420 $ury=0.0900 $lvl=12
*|S (CK:4 0.0420 0.0150) // $llx=0.0360 $lly=0.0150 $urx=0.0480 $ury=0.0150 $lvl=10
*|S (CK:5 0.0420 0.0450) // $llx=0.0360 $lly=0.0450 $urx=0.0480 $ury=0.0450 $lvl=11
*|S (CK:6 0.0420 0.0750) // $llx=0.0360 $lly=0.0750 $urx=0.0480 $ury=0.0750 $lvl=10
*|S (CK:7 0.0420 0.1050) // $llx=0.0360 $lly=0.1050 $urx=0.0480 $ury=0.1050 $lvl=12
*|S (CK:8 0.0420 0.1100) // $llx=0.0360 $lly=0.1100 $urx=0.0480 $ury=0.1100 $lvl=10
*|S (CK:9 0.0420 0.0600) // $llx=0.0360 $lly=0.0540 $urx=0.0480 $ury=0.0660 $lvl=10
*|S (CK:10 0.0490 0.0600) // $llx=0.0430 $lly=0.0540 $urx=0.0550 $ury=0.0660 $lvl=14
*|S (CK:11 0.0490 0.0180) // $llx=0.0430 $lly=0.0180 $urx=0.0550 $ury=0.0180 $lvl=9
*|S (CK:12 0.0420 0.0100) // $llx=0.0360 $lly=0.0100 $urx=0.0480 $ury=0.0100 $lvl=10
*|S (CK:13 0.0550 0.0600) // $llx=0.0550 $lly=0.0540 $urx=0.0550 $ury=0.0660 $lvl=14
*|S (CK:14 0.0490 0.1020) // $llx=0.0430 $lly=0.1020 $urx=0.0550 $ury=0.1020 $lvl=9
Cg3_1 CK:4 0 6.11935e-20
Cg3_2 CK:5 0 2.43715e-19
Cg3_3 CK:6 0 2.69338e-19
Cg3_4 CK:7 0 3.69334e-19
Cg3_5 CK:8 0 1.74274e-19
Cg3_6 CK:9 0 1.63528e-19
Cg3_7 CK:11 0 1.8542e-18
R3_1 CK CK:11 14.5833 $l=0.0420 $w=0.0120 $lvl=9
R3_2 CK CK:14 14.5833 $l=0.0420 $w=0.0120 $lvl=9
R3_3 CK CK:10 63.5281 $a=0.00014400 $lvl=30
R3_4 MM12:GATE CK:5 6.57895 $l=0.0150 $w=0.0120 $lvl=11
R3_5 MM12:GATE CK:4 6.57895 $l=0.0150 $w=0.0120 $lvl=11
R3_6 MM11:GATE CK:7 6.57895 $l=0.0150 $w=0.0120 $lvl=12
R3_7 MM11:GATE CK:6 6.57895 $l=0.0150 $w=0.0120 $lvl=12
R3_8 CK:4 CK:12 2.19298 $l=0.0050 $w=0.0120 $lvl=10
R3_9 CK:5 CK:9 6.57895 $l=0.0150 $w=0.0120 $lvl=10
R3_10 CK:6 CK:9 6.57895 $l=0.0150 $w=0.0120 $lvl=10
R3_11 CK:7 CK:8 2.19298 $l=0.0050 $w=0.0120 $lvl=10
R3_12 CK:9 CK:10 9.24462 $l=0.0070 $w=0.0120 $lvl=14
R3_13 CK:10 CK:13 7.92396 $l=0.0060 $w=0.0120 $lvl=14

*|NET D 2.08218e-05PF
*|P (D B 0 0.1470 0.0600) // $llx=0.1410 $lly=0.0540 $urx=0.1530 $ury=0.0660 $lvl=33
*|I (MM18:GATE MM18 GATE I 3.6e-19 0.1680 0.0300) // $llx=0.1680 $lly=0.0300 $urx=0.1680 $ury=0.0300 $lvl=11
*|I (MM17:GATE MM17 GATE I 3.6e-19 0.1680 0.0900) // $llx=0.1680 $lly=0.0900 $urx=0.1680 $ury=0.0900 $lvl=12
*|S (D:4 0.1680 0.0150) // $llx=0.1620 $lly=0.0150 $urx=0.1740 $ury=0.0150 $lvl=10
*|S (D:5 0.1680 0.0450) // $llx=0.1620 $lly=0.0450 $urx=0.1740 $ury=0.0450 $lvl=11
*|S (D:6 0.1680 0.0750) // $llx=0.1620 $lly=0.0750 $urx=0.1740 $ury=0.0750 $lvl=10
*|S (D:7 0.1680 0.1050) // $llx=0.1620 $lly=0.1050 $urx=0.1740 $ury=0.1050 $lvl=12
*|S (D:8 0.1680 0.1100) // $llx=0.1620 $lly=0.1100 $urx=0.1740 $ury=0.1100 $lvl=10
*|S (D:9 0.1680 0.0600) // $llx=0.1620 $lly=0.0540 $urx=0.1740 $ury=0.0660 $lvl=10
*|S (D:10 0.1470 0.0600) // $llx=0.1410 $lly=0.0540 $urx=0.1530 $ury=0.0660 $lvl=14
*|S (D:11 0.1470 0.0180) // $llx=0.1410 $lly=0.0180 $urx=0.1530 $ury=0.0180 $lvl=9
*|S (D:12 0.1680 0.0100) // $llx=0.1620 $lly=0.0100 $urx=0.1740 $ury=0.0100 $lvl=10
*|S (D:13 0.1410 0.0600) // $llx=0.1410 $lly=0.0540 $urx=0.1410 $ury=0.0660 $lvl=14
*|S (D:14 0.1470 0.1020) // $llx=0.1410 $lly=0.1020 $urx=0.1530 $ury=0.1020 $lvl=9
Cg4_1 D:4 0 6.05746e-20
Cg4_2 D:5 0 2.43715e-19
Cg4_3 D:6 0 2.72545e-19
Cg4_4 D:7 0 3.79686e-19
Cg4_5 D:8 0 1.76591e-19
Cg4_6 D:9 0 1.83247e-19
Cg4_7 D:11 0 2.23571e-18
R4_1 D D:11 14.5833 $l=0.0420 $w=0.0120 $lvl=9
R4_2 D D:14 14.5833 $l=0.0420 $w=0.0120 $lvl=9
R4_3 D D:10 63.5281 $a=0.00014400 $lvl=30
R4_4 MM18:GATE D:5 6.57895 $l=0.0150 $w=0.0120 $lvl=11
R4_5 MM18:GATE D:4 6.57895 $l=0.0150 $w=0.0120 $lvl=11
R4_6 MM17:GATE D:7 6.57895 $l=0.0150 $w=0.0120 $lvl=12
R4_7 MM17:GATE D:6 6.57895 $l=0.0150 $w=0.0120 $lvl=12
R4_8 D:4 D:12 2.19298 $l=0.0050 $w=0.0120 $lvl=10
R4_9 D:5 D:9 6.57895 $l=0.0150 $w=0.0120 $lvl=10
R4_10 D:6 D:9 6.57895 $l=0.0150 $w=0.0120 $lvl=10
R4_11 D:7 D:8 2.19298 $l=0.0050 $w=0.0120 $lvl=10
R4_12 D:9 D:10 27.7339 $l=0.0210 $w=0.0120 $lvl=14
R4_13 D:10 D:13 7.92396 $l=0.0060 $w=0.0120 $lvl=14

*|NET VSS 0.000231962PF
*|P (VSS B 0 0.5040 0.0000) // $llx=0.5030 $lly=-0.0010 $urx=0.5050 $ury=0.0010 $lvl=33
*|I (MM40:SRC MM40 SRC B 0 0.9600 0.0300) // $llx=0.9600 $lly=0.0300 $urx=0.9600 $ury=0.0300 $lvl=16
*|I (MM29:SRC MM29 SRC B 0 0.4260 0.0225) // $llx=0.4260 $lly=0.0225 $urx=0.4260 $ury=0.0225 $lvl=16
*|I (MM25:SRC MM25 SRC B 0 0.3720 0.0225) // $llx=0.3720 $lly=0.0225 $urx=0.3720 $ury=0.0225 $lvl=16
*|I (MM15:BULK MM15 BULK B 0 0.2100 0.0300) // $llx=0.2100 $lly=0.0300 $urx=0.2100 $ury=0.0300 $lvl=20
*|I (MM18:SRC MM18 SRC B 0 0.1620 0.0300) // $llx=0.1620 $lly=0.0300 $urx=0.1620 $ury=0.0300 $lvl=16
*|I (MM13:SRC MM13 SRC B 0 0.0780 0.0300) // $llx=0.0780 $lly=0.0300 $urx=0.0780 $ury=0.0300 $lvl=16
*|I (MM12:SRC MM12 SRC B 0 0.0480 0.0300) // $llx=0.0480 $lly=0.0300 $urx=0.0480 $ury=0.0300 $lvl=16
*|I (MM35:BULK MM35 BULK B 0 0.8820 0.0225) // $llx=0.8820 $lly=0.0225 $urx=0.8820 $ury=0.0225 $lvl=20
*|I (MM33:BULK MM33 BULK B 0 0.7980 0.0225) // $llx=0.7980 $lly=0.0225 $urx=0.7980 $ury=0.0225 $lvl=20
*|I (MM33:SRC MM33 SRC B 0 0.8040 0.0225) // $llx=0.8040 $lly=0.0225 $urx=0.8040 $ury=0.0225 $lvl=16
*|I (MM34:SRC MM34 SRC B 0 0.7500 0.0225) // $llx=0.7500 $lly=0.0225 $urx=0.7500 $ury=0.0225 $lvl=16
*|I (MM31:SRC MM31 SRC B 0 0.7200 0.0225) // $llx=0.7200 $lly=0.0225 $urx=0.7200 $ury=0.0225 $lvl=16
*|I (MM30:SRC MM30 SRC B 0 0.6660 0.0225) // $llx=0.6660 $lly=0.0225 $urx=0.6660 $ury=0.0225 $lvl=16
*|I (MM26:BULK MM26 BULK B 0 0.5460 0.0380) // $llx=0.5460 $lly=0.0380 $urx=0.5460 $ury=0.0380 $lvl=20
*|I (MM20:SRC MM20 SRC B 0 0.5100 0.0225) // $llx=0.5100 $lly=0.0225 $urx=0.5100 $ury=0.0225 $lvl=16
*|I (MM32:SRC MM32 SRC B 0 0.4560 0.0225) // $llx=0.4560 $lly=0.0225 $urx=0.4560 $ury=0.0225 $lvl=16
*|I (MM35:BULK MM40 BULK B 0 0.9660 0.0300) // $llx=0.9660 $lly=0.0300 $urx=0.9660 $ury=0.0300 $lvl=20
*|I (MM26:BULK MM29 BULK B 0 0.4200 0.0225) // $llx=0.4200 $lly=0.0225 $urx=0.4200 $ury=0.0225 $lvl=20
*|I (MM26:BULK MM25 BULK B 0 0.3780 0.0225) // $llx=0.3780 $lly=0.0225 $urx=0.3780 $ury=0.0225 $lvl=20
*|I (MM15:BULK MM24 BULK B 0 0.2520 0.0225) // $llx=0.2520 $lly=0.0225 $urx=0.2520 $ury=0.0225 $lvl=20
*|I (MM15:BULK MM18 BULK B 0 0.1680 0.0300) // $llx=0.1680 $lly=0.0300 $urx=0.1680 $ury=0.0300 $lvl=20
*|I (MM15:BULK MM13 BULK B 0 0.0840 0.0300) // $llx=0.0840 $lly=0.0300 $urx=0.0840 $ury=0.0300 $lvl=20
*|I (MM15:BULK MM12 BULK B 0 0.0420 0.0300) // $llx=0.0420 $lly=0.0300 $urx=0.0420 $ury=0.0300 $lvl=20
*|I (MM33:BULK MM34 BULK B 0 0.7560 0.0225) // $llx=0.7560 $lly=0.0225 $urx=0.7560 $ury=0.0225 $lvl=20
*|I (MM33:BULK MM31 BULK B 0 0.7140 0.0225) // $llx=0.7140 $lly=0.0225 $urx=0.7140 $ury=0.0225 $lvl=20
*|I (MM33:BULK MM30 BULK B 0 0.6720 0.0225) // $llx=0.6720 $lly=0.0225 $urx=0.6720 $ury=0.0225 $lvl=20
*|I (MM26:BULK MM20 BULK B 0 0.5040 0.0225) // $llx=0.5040 $lly=0.0225 $urx=0.5040 $ury=0.0225 $lvl=20
*|I (MM26:BULK MM32 BULK B 0 0.4620 0.0225) // $llx=0.4620 $lly=0.0225 $urx=0.4620 $ury=0.0225 $lvl=20
*|S (VSS:18 0.4310 0.0000) // $llx=0.4310 $lly=-0.0060 $urx=0.4510 $ury=0.0060 $lvl=14
*|S (VSS:19 0.5150 0.0000) // $llx=0.5150 $lly=-0.0060 $urx=0.5350 $ury=0.0060 $lvl=14
*|S (VSS:20 0.6410 0.0000) // $llx=0.6410 $lly=-0.0060 $urx=0.6610 $ury=0.0060 $lvl=14
*|S (VSS:21 0.7250 0.0000) // $llx=0.7250 $lly=-0.0060 $urx=0.7450 $ury=0.0060 $lvl=14
*|S (VSS:22 0.8090 0.0000) // $llx=0.8090 $lly=-0.0060 $urx=0.8290 $ury=0.0060 $lvl=14
*|S (VSS:23 0.9350 0.0000) // $llx=0.9350 $lly=-0.0060 $urx=0.9550 $ury=0.0060 $lvl=14
*|S (VSS:24 0.0630 0.0150) // $llx=0.0530 $lly=0.0150 $urx=0.0730 $ury=0.0150 $lvl=15
*|S (VSS:25 0.1470 0.0150) // $llx=0.1370 $lly=0.0150 $urx=0.1570 $ury=0.0150 $lvl=15
*|S (VSS:26 0.9450 0.0150) // $llx=0.9350 $lly=0.0150 $urx=0.9550 $ury=0.0150 $lvl=15
*|S (VSS:27 0.0210 0.0000) // $llx=0.0150 $lly=-0.0060 $urx=0.0270 $ury=0.0060 $lvl=9
*|S (VSS:28 0.0210 0.0000) // $llx=0.0150 $lly=-0.0060 $urx=0.0270 $ury=0.0060 $lvl=14
*|S (VSS:29 0.0630 0.0000) // $llx=0.0570 $lly=-0.0060 $urx=0.0690 $ury=0.0060 $lvl=9
*|S (VSS:30 0.0630 0.0000) // $llx=0.0530 $lly=-0.0060 $urx=0.0730 $ury=0.0060 $lvl=13
*|S (VSS:31 0.1050 0.0000) // $llx=0.0990 $lly=-0.0060 $urx=0.1110 $ury=0.0060 $lvl=9
*|S (VSS:32 0.1050 0.0000) // $llx=0.0990 $lly=-0.0060 $urx=0.1110 $ury=0.0060 $lvl=14
*|S (VSS:33 0.1470 0.0000) // $llx=0.1410 $lly=-0.0060 $urx=0.1530 $ury=0.0060 $lvl=9
*|S (VSS:34 0.1470 0.0000) // $llx=0.1370 $lly=-0.0060 $urx=0.1570 $ury=0.0060 $lvl=13
*|S (VSS:35 0.1890 0.0000) // $llx=0.1830 $lly=-0.0060 $urx=0.1950 $ury=0.0060 $lvl=9
*|S (VSS:36 0.1890 0.0000) // $llx=0.1830 $lly=-0.0060 $urx=0.1950 $ury=0.0060 $lvl=14
*|S (VSS:37 0.2310 0.0000) // $llx=0.2250 $lly=-0.0060 $urx=0.2370 $ury=0.0060 $lvl=9
*|S (VSS:38 0.2310 0.0000) // $llx=0.2250 $lly=-0.0060 $urx=0.2370 $ury=0.0060 $lvl=14
*|S (VSS:39 0.2730 0.0000) // $llx=0.2670 $lly=-0.0060 $urx=0.2790 $ury=0.0060 $lvl=9
*|S (VSS:40 0.2730 0.0000) // $llx=0.2670 $lly=-0.0060 $urx=0.2790 $ury=0.0060 $lvl=14
*|S (VSS:41 0.3150 0.0000) // $llx=0.3090 $lly=-0.0060 $urx=0.3210 $ury=0.0060 $lvl=9
*|S (VSS:42 0.3150 0.0000) // $llx=0.3090 $lly=-0.0060 $urx=0.3210 $ury=0.0060 $lvl=14
*|S (VSS:43 0.3570 0.0000) // $llx=0.3510 $lly=-0.0060 $urx=0.3630 $ury=0.0060 $lvl=9
*|S (VSS:44 0.3570 0.0000) // $llx=0.3470 $lly=-0.0060 $urx=0.3670 $ury=0.0060 $lvl=13
*|S (VSS:45 0.3990 0.0000) // $llx=0.3930 $lly=-0.0060 $urx=0.4050 $ury=0.0060 $lvl=9
*|S (VSS:46 0.3990 0.0000) // $llx=0.3930 $lly=-0.0060 $urx=0.4050 $ury=0.0060 $lvl=14
*|S (VSS:47 0.4410 0.0000) // $llx=0.4350 $lly=-0.0060 $urx=0.4470 $ury=0.0060 $lvl=9
*|S (VSS:48 0.4830 0.0000) // $llx=0.4770 $lly=-0.0060 $urx=0.4890 $ury=0.0060 $lvl=9
*|S (VSS:49 0.4830 0.0000) // $llx=0.4770 $lly=-0.0060 $urx=0.4890 $ury=0.0060 $lvl=14
*|S (VSS:50 0.5250 0.0000) // $llx=0.5190 $lly=-0.0060 $urx=0.5310 $ury=0.0060 $lvl=9
*|S (VSS:51 0.5670 0.0000) // $llx=0.5610 $lly=-0.0060 $urx=0.5730 $ury=0.0060 $lvl=9
*|S (VSS:52 0.5670 0.0000) // $llx=0.5610 $lly=-0.0060 $urx=0.5730 $ury=0.0060 $lvl=14
*|S (VSS:53 0.6090 0.0000) // $llx=0.6030 $lly=-0.0060 $urx=0.6150 $ury=0.0060 $lvl=9
*|S (VSS:54 0.6090 0.0000) // $llx=0.6030 $lly=-0.0060 $urx=0.6150 $ury=0.0060 $lvl=14
*|S (VSS:55 0.6510 0.0000) // $llx=0.6450 $lly=-0.0060 $urx=0.6570 $ury=0.0060 $lvl=9
*|S (VSS:56 0.6930 0.0000) // $llx=0.6870 $lly=-0.0060 $urx=0.6990 $ury=0.0060 $lvl=9
*|S (VSS:57 0.6930 0.0000) // $llx=0.6870 $lly=-0.0060 $urx=0.6990 $ury=0.0060 $lvl=14
*|S (VSS:58 0.7350 0.0000) // $llx=0.7290 $lly=-0.0060 $urx=0.7410 $ury=0.0060 $lvl=9
*|S (VSS:59 0.7770 0.0000) // $llx=0.7710 $lly=-0.0060 $urx=0.7830 $ury=0.0060 $lvl=9
*|S (VSS:60 0.7770 0.0000) // $llx=0.7710 $lly=-0.0060 $urx=0.7830 $ury=0.0060 $lvl=14
*|S (VSS:61 0.8190 0.0000) // $llx=0.8130 $lly=-0.0060 $urx=0.8250 $ury=0.0060 $lvl=9
*|S (VSS:62 0.8610 0.0000) // $llx=0.8550 $lly=-0.0060 $urx=0.8670 $ury=0.0060 $lvl=9
*|S (VSS:63 0.8610 0.0000) // $llx=0.8550 $lly=-0.0060 $urx=0.8670 $ury=0.0060 $lvl=14
*|S (VSS:64 0.9030 0.0000) // $llx=0.8970 $lly=-0.0060 $urx=0.9090 $ury=0.0060 $lvl=9
*|S (VSS:65 0.9030 0.0000) // $llx=0.8970 $lly=-0.0060 $urx=0.9090 $ury=0.0060 $lvl=14
*|S (VSS:66 0.9450 0.0000) // $llx=0.9390 $lly=-0.0060 $urx=0.9510 $ury=0.0060 $lvl=9
*|S (VSS:67 0.9870 0.0000) // $llx=0.9810 $lly=-0.0060 $urx=0.9930 $ury=0.0060 $lvl=9
*|S (VSS:68 0.9870 0.0000) // $llx=0.9810 $lly=-0.0060 $urx=0.9930 $ury=0.0060 $lvl=14
*|S (VSS:69 0.0630 0.0450) // $llx=0.0530 $lly=0.0450 $urx=0.0730 $ury=0.0450 $lvl=15
*|S (VSS:70 0.1470 0.0450) // $llx=0.1370 $lly=0.0450 $urx=0.1570 $ury=0.0450 $lvl=15
*|S (VSS:71 0.3250 0.0600) // $llx=0.3250 $lly=-0.0100 $urx=0.3250 $ury=0.1300 $lvl=21
*|S (VSS:72 0.9970 0.0600) // $llx=0.9970 $lly=-0.0100 $urx=1.0170 $ury=0.1300 $lvl=20
*|S (VSS:73 0.9450 0.0450) // $llx=0.9350 $lly=0.0450 $urx=0.9550 $ury=0.0450 $lvl=15
*|S (VSS:74 -0.0090 0.0000) // $llx=-0.0090 $lly=-0.0060 $urx=-0.0090 $ury=0.0060 $lvl=9
*|S (VSS:75 1.0170 0.0000) // $llx=1.0170 $lly=-0.0060 $urx=1.0170 $ury=0.0060 $lvl=9
*|S (VSS:76 -0.0090 0.0000) // $llx=-0.0090 $lly=-0.0060 $urx=-0.0090 $ury=0.0060 $lvl=14
*|S (VSS:77 1.0170 0.0000) // $llx=1.0170 $lly=-0.0060 $urx=1.0170 $ury=0.0060 $lvl=14
*|S (VSS:78 0.0630 0.0300) // $llx=0.0530 $lly=0.0300 $urx=0.0730 $ury=0.0300 $lvl=15
*|S (VSS:79 0.1470 0.0300) // $llx=0.1370 $lly=0.0300 $urx=0.1570 $ury=0.0300 $lvl=15
*|S (VSS:80 0.3570 0.0200) // $llx=0.3470 $lly=0.0150 $urx=0.3670 $ury=0.0250 $lvl=15
*|S (VSS:81 0.4410 0.0200) // $llx=0.4310 $lly=0.0150 $urx=0.4510 $ury=0.0250 $lvl=15
*|S (VSS:82 0.5250 0.0200) // $llx=0.5150 $lly=0.0150 $urx=0.5350 $ury=0.0250 $lvl=15
*|S (VSS:83 0.6510 0.0200) // $llx=0.6410 $lly=0.0150 $urx=0.6610 $ury=0.0250 $lvl=15
*|S (VSS:84 0.7350 0.0200) // $llx=0.7250 $lly=0.0150 $urx=0.7450 $ury=0.0250 $lvl=15
*|S (VSS:85 0.8190 0.0200) // $llx=0.8090 $lly=0.0150 $urx=0.8290 $ury=0.0250 $lvl=15
*|S (VSS:86 0.9450 0.0300) // $llx=0.9350 $lly=0.0300 $urx=0.9550 $ury=0.0300 $lvl=15
*|S (VSS:87 0.3570 0.0300) // $llx=0.3470 $lly=0.0300 $urx=0.3670 $ury=0.0300 $lvl=16
*|S (VSS:88 0.4410 0.0300) // $llx=0.4310 $lly=0.0300 $urx=0.4510 $ury=0.0300 $lvl=16
*|S (VSS:89 0.5250 0.0300) // $llx=0.5150 $lly=0.0300 $urx=0.5350 $ury=0.0300 $lvl=16
*|S (VSS:90 0.6510 0.0300) // $llx=0.6410 $lly=0.0300 $urx=0.6610 $ury=0.0300 $lvl=16
*|S (VSS:91 0.7350 0.0300) // $llx=0.7250 $lly=0.0300 $urx=0.7450 $ury=0.0300 $lvl=16
*|S (VSS:92 0.8190 0.0300) // $llx=0.8090 $lly=0.0300 $urx=0.8290 $ury=0.0300 $lvl=16
C5_1 VSS:23 SET:7 6.11781e-20
C5_2 VSS:23 SET:11 6.11781e-20
C5_3 MM26:BULK SET:19 8.8882e-20
C5_4 VSS:18 SET:19 2.56587e-19
C5_5 VSS:19 SET:19 1.37134e-20
C5_6 VSS:23 SET:19 2.41347e-19
C5_7 VSS:74 SET:19 2.66245e-18
C5_8 VSS:75 SET:19 2.66245e-18
C5_9 VSS:81 SET:19 1.23328e-19
C5_10 VSS:82 SET:19 1.83939e-20
C5_11 MM33:BULK SET:20 2.2586e-19
C5_12 MM26:BULK SET:20 3.39517e-20
C5_13 VSS:20 SET:20 5.86729e-19
C5_14 VSS:21 SET:20 5.88277e-19
C5_15 VSS:23 SET:20 6.96426e-19
C5_16 VSS:74 SET:20 6.07546e-18
C5_17 VSS:75 SET:20 6.07546e-18
C5_18 VSS:83 SET:20 1.37617e-19
C5_19 VSS:84 SET:20 1.41918e-19
C5_20 MM33:BULK SET:21 4.00717e-20
C5_21 MM26:BULK SET:21 3.34614e-20
C5_22 VSS:19 SET:21 3.1609e-20
C5_23 VSS:74 SET:21 1.53998e-18
C5_24 VSS:75 SET:21 1.53998e-18
C5_25 VSS:82 SET:21 3.87981e-20
C5_26 VSS:23 CK:6 4.1612e-20
C5_27 MM15:BULK CK:9 7.96256e-21
C5_28 VSS:23 CK:9 3.78951e-21
C5_29 MM15:BULK CK:11 2.48218e-19
C5_30 VSS:23 CK:11 9.72945e-20
C5_31 VSS:24 CK:11 1.82767e-20
C5_32 VSS:30 CK:11 9.82626e-20
C5_33 VSS:69 CK:11 8.02462e-20
C5_34 VSS:74 CK:11 1.04228e-18
C5_35 VSS:75 CK:11 1.04228e-18
C5_36 VSS:23 D:6 4.65718e-20
C5_37 VSS:23 D:9 3.78951e-21
C5_38 MM15:BULK D:11 4.62288e-19
C5_39 VSS:23 D:11 1.03062e-19
C5_40 VSS:25 D:11 2.38854e-19
C5_41 VSS:34 D:11 3.42638e-19
C5_42 VSS:70 D:11 4.3856e-20
C5_43 VSS:74 D:11 9.87181e-19
C5_44 VSS:75 D:11 9.87181e-19
Cg5_45 MM15:BULK 0 9.57526e-18
Cg5_46 MM35:BULK 0 5.15878e-18
Cg5_47 MM33:BULK 0 9.78128e-18
Cg5_48 MM26:BULK 0 1.44501e-17
Cg5_49 VSS:18 0 4.53303e-20
Cg5_50 VSS:19 0 1.13711e-19
Cg5_51 VSS:20 0 2.4418e-19
Cg5_52 VSS:21 0 8.09442e-20
Cg5_53 VSS:22 0 1.92181e-20
Cg5_54 VSS:23 0 8.80503e-18
Cg5_55 VSS:24 0 2.81025e-19
Cg5_56 VSS:25 0 2.83402e-19
Cg5_57 VSS:26 0 1.90236e-19
Cg5_58 VSS:30 0 3.30684e-19
Cg5_59 VSS:34 0 6.26591e-19
Cg5_60 VSS:44 0 2.84897e-19
Cg5_61 VSS:69 0 6.06973e-19
Cg5_62 VSS:70 0 5.17687e-19
Cg5_63 VSS:72 0 1.05618e-18
Cg5_64 VSS:73 0 5.17687e-19
Cg5_65 VSS:74 0 1.23333e-17
Cg5_66 VSS:75 0 1.23333e-17
Cg5_67 VSS:80 0 3.76253e-19
Cg5_68 VSS:81 0 3.52438e-19
Cg5_69 VSS:82 0 3.86593e-19
Cg5_70 VSS:83 0 3.75866e-19
Cg5_71 VSS:84 0 4.25933e-19
Cg5_72 VSS:85 0 3.50644e-19
R5_1 VSS VSS:50 7.29167 $l=0.0210 $w=0.0120 $lvl=9
R5_2 VSS VSS:48 7.29167 $l=0.0210 $w=0.0120 $lvl=9
R5_3 MM40:SRC VSS:73 2.0 $l=0.0150 $w=0.0075 $lvl=16
R5_4 MM40:SRC VSS:26 2.0 $l=0.0150 $w=0.0075 $lvl=16
R5_5 MM40:SRC VSS:86 1.0 $l=0.0150 $w=0.0150 $lvl=16
R5_6 MM29:SRC VSS:88 6.0 $l=0.0150 $w=0.0025 $lvl=16
R5_7 MM29:SRC VSS:81 1.2 $l=0.0150 $w=0.0125 $lvl=16
R5_8 MM25:SRC VSS:87 6.0 $l=0.0150 $w=0.0025 $lvl=16
R5_9 MM25:SRC VSS:80 1.2 $l=0.0150 $w=0.0125 $lvl=16
R5_10 MM15:BULK VSS:71 0.517327 $l=0.1150 $w=0.1400 $lvl=20
R5_11 MM18:SRC VSS:70 2.0 $l=0.0150 $w=0.0075 $lvl=16
R5_12 MM18:SRC VSS:25 2.0 $l=0.0150 $w=0.0075 $lvl=16
R5_13 MM18:SRC VSS:79 1.0 $l=0.0150 $w=0.0150 $lvl=16
R5_14 MM13:SRC VSS:69 2.0 $l=0.0150 $w=0.0075 $lvl=16
R5_15 MM13:SRC VSS:24 2.0 $l=0.0150 $w=0.0075 $lvl=16
R5_16 MM13:SRC VSS:78 1.0 $l=0.0150 $w=0.0150 $lvl=16
R5_17 MM12:SRC VSS:69 2.0 $l=0.0150 $w=0.0075 $lvl=16
R5_18 MM12:SRC VSS:24 2.0 $l=0.0150 $w=0.0075 $lvl=16
R5_19 MM12:SRC VSS:78 1.0 $l=0.0150 $w=0.0150 $lvl=16
R5_20 MM35:BULK VSS:72 0.348573 $l=0.1150 $w=0.1400 $lvl=20
R5_21 MM35:BULK MM33:BULK 0.660714 $l=0.0840 $w=0.1400 $lvl=20
R5_22 MM33:BULK MM26:BULK 1.04643 $l=0.2520 $w=0.1400 $lvl=20
R5_23 MM33:SRC VSS:92 6.0 $l=0.0150 $w=0.0025 $lvl=16
R5_24 MM33:SRC VSS:85 1.2 $l=0.0150 $w=0.0125 $lvl=16
R5_25 MM34:SRC VSS:91 6.0 $l=0.0150 $w=0.0025 $lvl=16
R5_26 MM34:SRC VSS:84 1.2 $l=0.0150 $w=0.0125 $lvl=16
R5_27 MM31:SRC VSS:91 6.0 $l=0.0150 $w=0.0025 $lvl=16
R5_28 MM31:SRC VSS:84 1.2 $l=0.0150 $w=0.0125 $lvl=16
R5_29 MM30:SRC VSS:90 6.0 $l=0.0150 $w=0.0025 $lvl=16
R5_30 MM30:SRC VSS:83 1.2 $l=0.0150 $w=0.0125 $lvl=16
R5_31 MM26:BULK VSS:71 0.246429 $l=0.2210 $w=0.1400 $lvl=20
R5_32 MM20:SRC VSS:89 6.0 $l=0.0150 $w=0.0025 $lvl=16
R5_33 MM20:SRC VSS:82 1.2 $l=0.0150 $w=0.0125 $lvl=16
R5_34 MM32:SRC VSS:88 6.0 $l=0.0150 $w=0.0025 $lvl=16
R5_35 MM32:SRC VSS:81 1.2 $l=0.0150 $w=0.0125 $lvl=16
R5_36 VSS:18 VSS:46 50.1851 $l=0.0320 $w=0.0120 $lvl=14
R5_37 VSS:18 VSS:47 31.764 $a=0.00028800 $lvl=31
R5_38 VSS:18 VSS:81 11.8654 $l=0.0200 $w=0.0200 $lvl=13
R5_39 VSS:18 VSS:49 50.1851 $l=0.0520 $w=0.0120 $lvl=14
R5_40 VSS:19 VSS:49 50.1851 $l=0.0320 $w=0.0120 $lvl=14
R5_41 VSS:19 VSS:50 31.764 $a=0.00028800 $lvl=31
R5_42 VSS:19 VSS:82 11.8654 $l=0.0200 $w=0.0200 $lvl=13
R5_43 VSS:19 VSS:52 50.1851 $l=0.0520 $w=0.0120 $lvl=14
R5_44 VSS:20 VSS:54 50.1851 $l=0.0320 $w=0.0120 $lvl=14
R5_45 VSS:20 VSS:55 31.764 $a=0.00028800 $lvl=31
R5_46 VSS:20 VSS:83 11.8654 $l=0.0200 $w=0.0200 $lvl=13
R5_47 VSS:20 VSS:57 50.1851 $l=0.0520 $w=0.0120 $lvl=14
R5_48 VSS:21 VSS:57 50.1851 $l=0.0320 $w=0.0120 $lvl=14
R5_49 VSS:21 VSS:58 31.764 $a=0.00028800 $lvl=31
R5_50 VSS:21 VSS:84 11.8654 $l=0.0200 $w=0.0200 $lvl=13
R5_51 VSS:21 VSS:60 50.1851 $l=0.0520 $w=0.0120 $lvl=14
R5_52 VSS:22 VSS:60 50.1851 $l=0.0320 $w=0.0120 $lvl=14
R5_53 VSS:22 VSS:61 31.764 $a=0.00028800 $lvl=31
R5_54 VSS:22 VSS:85 11.8654 $l=0.0200 $w=0.0200 $lvl=13
R5_55 VSS:22 VSS:63 50.1851 $l=0.0520 $w=0.0120 $lvl=14
R5_56 VSS:23 VSS:26 8.89907 $l=0.0150 $w=0.0200 $lvl=13
R5_57 VSS:23 VSS:65 50.1851 $l=0.0320 $w=0.0120 $lvl=14
R5_58 VSS:23 VSS:66 31.764 $a=0.00028800 $lvl=31
R5_59 VSS:23 VSS:68 50.1851 $l=0.0520 $w=0.0120 $lvl=14
R5_60 VSS:24 VSS:78 1.87763 $l=0.0150 $w=0.0250 $lvl=16
R5_61 VSS:24 VSS:30 8.89907 $l=0.0150 $w=0.0200 $lvl=13
R5_62 VSS:25 VSS:79 2.73284 $l=0.0150 $w=0.0225 $lvl=16
R5_63 VSS:25 VSS:34 8.89907 $l=0.0150 $w=0.0200 $lvl=13
R5_64 VSS:26 VSS:86 2.73284 $l=0.0150 $w=0.0225 $lvl=16
R5_65 VSS:27 VSS:28 63.5281 $a=0.00014400 $lvl=30
R5_66 VSS:27 VSS:74 10.4167 $l=0.0300 $w=0.0120 $lvl=9
R5_67 VSS:27 VSS:29 14.5833 $l=0.0420 $w=0.0120 $lvl=9
R5_68 VSS:28 VSS:76 39.6198 $l=0.0300 $w=0.0120 $lvl=14
R5_69 VSS:28 VSS:30 50.1851 $l=0.0420 $w=0.0120 $lvl=14
R5_70 VSS:29 VSS:30 31.764 $a=0.00028800 $lvl=31
R5_71 VSS:29 VSS:31 14.5833 $l=0.0420 $w=0.0120 $lvl=9
R5_72 VSS:30 VSS:32 50.1851 $l=0.0420 $w=0.0120 $lvl=14
R5_73 VSS:31 VSS:32 63.5281 $a=0.00014400 $lvl=30
R5_74 VSS:31 VSS:33 14.5833 $l=0.0420 $w=0.0120 $lvl=9
R5_75 VSS:32 VSS:34 50.1851 $l=0.0420 $w=0.0120 $lvl=14
R5_76 VSS:33 VSS:34 31.764 $a=0.00028800 $lvl=31
R5_77 VSS:33 VSS:35 14.5833 $l=0.0420 $w=0.0120 $lvl=9
R5_78 VSS:34 VSS:36 50.1851 $l=0.0420 $w=0.0120 $lvl=14
R5_79 VSS:35 VSS:36 63.5281 $a=0.00014400 $lvl=30
R5_80 VSS:35 VSS:37 14.5833 $l=0.0420 $w=0.0120 $lvl=9
R5_81 VSS:36 VSS:38 55.4677 $l=0.0420 $w=0.0120 $lvl=14
R5_82 VSS:37 VSS:38 63.5281 $a=0.00014400 $lvl=30
R5_83 VSS:37 VSS:39 14.5833 $l=0.0420 $w=0.0120 $lvl=9
R5_84 VSS:38 VSS:40 55.4677 $l=0.0420 $w=0.0120 $lvl=14
R5_85 VSS:39 VSS:40 63.5281 $a=0.00014400 $lvl=30
R5_86 VSS:39 VSS:41 14.5833 $l=0.0420 $w=0.0120 $lvl=9
R5_87 VSS:40 VSS:42 55.4677 $l=0.0420 $w=0.0120 $lvl=14
R5_88 VSS:41 VSS:42 63.5281 $a=0.00014400 $lvl=30
R5_89 VSS:41 VSS:43 14.5833 $l=0.0420 $w=0.0120 $lvl=9
R5_90 VSS:42 VSS:44 50.1851 $l=0.0420 $w=0.0120 $lvl=14