*
*|DSPF 1.3
*|DESIGN INVx12
*|DATE "Tue Oct 15 21:10:45 2024"
*|VENDOR "Synopsys"
*|PROGRAM "StarRC"
*|VERSION "V-2023.12-SP5"
*|DIVIDER .
*|DELIMITER :
**FORMAT SPF
*

** COMMENTS

** OPERATING_TEMPERATURE 25
** GLOBAL_TEMPERATURE 25
** 
** TCAD_GRD_FILE /home/gtcad/ctsai314/ITF_Modification/0_reference/3nm_FF_noBPR.nxtgrd
**   TCAD_TIME_STAMP Tue Sep 3 21:56:12 2024
**   TCADGRD_VERSION 89

.SUBCKT INVx12 A VDD VSS Y

*|GROUND_NET 0

*LAYER_MAP

*0 SUBSTRATE
*1 m9    ITF=M9
*2 m8    ITF=M8
*3 m7    ITF=M7
*4 m6    ITF=M6
*5 m5    ITF=M5
*6 m4    ITF=M4
*7 m3    ITF=M3
*8 m2    ITF=M2
*9 m1    ITF=M1
*10 fpoly    ITF=Gate
*11 ngate    ITF=Gate
*12 pgate    ITF=Gate
*13 lisd    ITF=LISD
*14 lig    ITF=LIG
*15 sdt    ITF=SDT
*16 nsd    ITF=Active
*17 psd    ITF=Active
*18 pselect    ITF=Active
*19 well    ITF=Active
*20 sub    ITF=Active
*21 nselect    ITF=Active
*22 v8    ITF=V8
*23 v7    ITF=V7
*24 v6    ITF=V6
*25 v5    ITF=V5
*26 v4    ITF=V4
*27 v3    ITF=V3
*28 v2    ITF=V2
*29 v1    ITF=V1
*30 v0lig    ITF=V0LIG
*31 v0lisd    ITF=V0LISD
*32 well_pin    ITF=Active
*33 M1_pin    ITF=M1
*34 M2_pin    ITF=M2
*35 M3_pin    ITF=M3
*36 M4_pin    ITF=M4
*37 M5_pin    ITF=M5
*38 M6_pin    ITF=M6
*39 M7_pin    ITF=M7
*40 M8_pin    ITF=M8
*41 M9_pin    ITF=M9

*|NET A 0.000110486PF
*|P (A B 0 0.0210 0.0600) // $llx=0.0200 $lly=0.0590 $urx=0.0220 $ury=0.0610 $lvl=33
*|I (MM22:GATE MM22 GATE I 3.6e-19 0.5040 0.0300) // $llx=0.5040 $lly=0.0300 $urx=0.5040 $ury=0.0300 $lvl=11
*|I (MM2:GATE MM2 GATE I 3.6e-19 0.1260 0.0300) // $llx=0.1260 $lly=0.0300 $urx=0.1260 $ury=0.0300 $lvl=11
*|I (MM1:GATE MM1 GATE I 3.6e-19 0.0840 0.0300) // $llx=0.0840 $lly=0.0300 $urx=0.0840 $ury=0.0300 $lvl=11
*|I (MM0:GATE MM0 GATE I 3.6e-19 0.0420 0.0300) // $llx=0.0420 $lly=0.0300 $urx=0.0420 $ury=0.0300 $lvl=11
*|I (MM23:GATE MM23 GATE I 3.6e-19 0.5040 0.0900) // $llx=0.5040 $lly=0.0900 $urx=0.5040 $ury=0.0900 $lvl=12
*|I (MM20:GATE MM20 GATE I 3.6e-19 0.4620 0.0900) // $llx=0.4620 $lly=0.0900 $urx=0.4620 $ury=0.0900 $lvl=12
*|I (MM19:GATE MM19 GATE I 3.6e-19 0.4200 0.0900) // $llx=0.4200 $lly=0.0900 $urx=0.4200 $ury=0.0900 $lvl=12
*|I (MM16:GATE MM16 GATE I 3.6e-19 0.3780 0.0900) // $llx=0.3780 $lly=0.0900 $urx=0.3780 $ury=0.0900 $lvl=12
*|I (MM15:GATE MM15 GATE I 3.6e-19 0.3360 0.0900) // $llx=0.3360 $lly=0.0900 $urx=0.3360 $ury=0.0900 $lvl=12
*|I (MM14:GATE MM14 GATE I 3.6e-19 0.2940 0.0900) // $llx=0.2940 $lly=0.0900 $urx=0.2940 $ury=0.0900 $lvl=12
*|I (MM13:GATE MM13 GATE I 3.6e-19 0.2520 0.0900) // $llx=0.2520 $lly=0.0900 $urx=0.2520 $ury=0.0900 $lvl=12
*|I (MM21:GATE MM21 GATE I 3.6e-19 0.4620 0.0300) // $llx=0.4620 $lly=0.0300 $urx=0.4620 $ury=0.0300 $lvl=11
*|I (MM12:GATE MM12 GATE I 3.6e-19 0.2100 0.0900) // $llx=0.2100 $lly=0.0900 $urx=0.2100 $ury=0.0900 $lvl=12
*|I (MM11:GATE MM11 GATE I 3.6e-19 0.1680 0.0900) // $llx=0.1680 $lly=0.0900 $urx=0.1680 $ury=0.0900 $lvl=12
*|I (MM10:GATE MM10 GATE I 3.6e-19 0.1260 0.0900) // $llx=0.1260 $lly=0.0900 $urx=0.1260 $ury=0.0900 $lvl=12
*|I (MM9:GATE MM9 GATE I 3.6e-19 0.0840 0.0900) // $llx=0.0840 $lly=0.0900 $urx=0.0840 $ury=0.0900 $lvl=12
*|I (MM8:GATE MM8 GATE I 3.6e-19 0.0420 0.0900) // $llx=0.0420 $lly=0.0900 $urx=0.0420 $ury=0.0900 $lvl=12
*|I (MM18:GATE MM18 GATE I 3.6e-19 0.4200 0.0300) // $llx=0.4200 $lly=0.0300 $urx=0.4200 $ury=0.0300 $lvl=11
*|I (MM17:GATE MM17 GATE I 3.6e-19 0.3780 0.0300) // $llx=0.3780 $lly=0.0300 $urx=0.3780 $ury=0.0300 $lvl=11
*|I (MM7:GATE MM7 GATE I 3.6e-19 0.3360 0.0300) // $llx=0.3360 $lly=0.0300 $urx=0.3360 $ury=0.0300 $lvl=11
*|I (MM6:GATE MM6 GATE I 3.6e-19 0.2940 0.0300) // $llx=0.2940 $lly=0.0300 $urx=0.2940 $ury=0.0300 $lvl=11
*|I (MM5:GATE MM5 GATE I 3.6e-19 0.2520 0.0300) // $llx=0.2520 $lly=0.0300 $urx=0.2520 $ury=0.0300 $lvl=11
*|I (MM4:GATE MM4 GATE I 3.6e-19 0.2100 0.0300) // $llx=0.2100 $lly=0.0300 $urx=0.2100 $ury=0.0300 $lvl=11
*|I (MM3:GATE MM3 GATE I 3.6e-19 0.1680 0.0300) // $llx=0.1680 $lly=0.0300 $urx=0.1680 $ury=0.0300 $lvl=11
*|S (A:26 0.0420 0.0150) // $llx=0.0360 $lly=0.0150 $urx=0.0480 $ury=0.0150 $lvl=10
*|S (A:27 0.0420 0.0450) // $llx=0.0360 $lly=0.0450 $urx=0.0480 $ury=0.0450 $lvl=11
*|S (A:28 0.0420 0.0750) // $llx=0.0360 $lly=0.0750 $urx=0.0480 $ury=0.0750 $lvl=10
*|S (A:29 0.0420 0.1050) // $llx=0.0360 $lly=0.1050 $urx=0.0480 $ury=0.1050 $lvl=12
*|S (A:30 0.0420 0.1100) // $llx=0.0360 $lly=0.1100 $urx=0.0480 $ury=0.1100 $lvl=10
*|S (A:31 0.0840 0.0150) // $llx=0.0780 $lly=0.0150 $urx=0.0900 $ury=0.0150 $lvl=10
*|S (A:32 0.0840 0.0450) // $llx=0.0780 $lly=0.0450 $urx=0.0900 $ury=0.0450 $lvl=11
*|S (A:33 0.0840 0.0750) // $llx=0.0780 $lly=0.0750 $urx=0.0900 $ury=0.0750 $lvl=10
*|S (A:34 0.0840 0.1050) // $llx=0.0780 $lly=0.1050 $urx=0.0900 $ury=0.1050 $lvl=12
*|S (A:35 0.0840 0.1100) // $llx=0.0780 $lly=0.1100 $urx=0.0900 $ury=0.1100 $lvl=10
*|S (A:36 0.1260 0.0150) // $llx=0.1200 $lly=0.0150 $urx=0.1320 $ury=0.0150 $lvl=10
*|S (A:37 0.1260 0.0450) // $llx=0.1200 $lly=0.0450 $urx=0.1320 $ury=0.0450 $lvl=11
*|S (A:38 0.1260 0.0750) // $llx=0.1200 $lly=0.0750 $urx=0.1320 $ury=0.0750 $lvl=10
*|S (A:39 0.1260 0.1050) // $llx=0.1200 $lly=0.1050 $urx=0.1320 $ury=0.1050 $lvl=12
*|S (A:40 0.1260 0.1100) // $llx=0.1200 $lly=0.1100 $urx=0.1320 $ury=0.1100 $lvl=10
*|S (A:41 0.1680 0.0150) // $llx=0.1620 $lly=0.0150 $urx=0.1740 $ury=0.0150 $lvl=10
*|S (A:42 0.1680 0.0450) // $llx=0.1620 $lly=0.0450 $urx=0.1740 $ury=0.0450 $lvl=11
*|S (A:43 0.1680 0.0750) // $llx=0.1620 $lly=0.0750 $urx=0.1740 $ury=0.0750 $lvl=10
*|S (A:44 0.1680 0.1050) // $llx=0.1620 $lly=0.1050 $urx=0.1740 $ury=0.1050 $lvl=12
*|S (A:45 0.1680 0.1100) // $llx=0.1620 $lly=0.1100 $urx=0.1740 $ury=0.1100 $lvl=10
*|S (A:46 0.2100 0.0150) // $llx=0.2040 $lly=0.0150 $urx=0.2160 $ury=0.0150 $lvl=10
*|S (A:47 0.2100 0.0450) // $llx=0.2040 $lly=0.0450 $urx=0.2160 $ury=0.0450 $lvl=11
*|S (A:48 0.2100 0.0750) // $llx=0.2040 $lly=0.0750 $urx=0.2160 $ury=0.0750 $lvl=10
*|S (A:49 0.2100 0.1050) // $llx=0.2040 $lly=0.1050 $urx=0.2160 $ury=0.1050 $lvl=12
*|S (A:50 0.2100 0.1100) // $llx=0.2040 $lly=0.1100 $urx=0.2160 $ury=0.1100 $lvl=10
*|S (A:51 0.2520 0.0150) // $llx=0.2460 $lly=0.0150 $urx=0.2580 $ury=0.0150 $lvl=10
*|S (A:52 0.2520 0.0450) // $llx=0.2460 $lly=0.0450 $urx=0.2580 $ury=0.0450 $lvl=11
*|S (A:53 0.2520 0.0750) // $llx=0.2460 $lly=0.0750 $urx=0.2580 $ury=0.0750 $lvl=10
*|S (A:54 0.2520 0.1050) // $llx=0.2460 $lly=0.1050 $urx=0.2580 $ury=0.1050 $lvl=12
*|S (A:55 0.2520 0.1100) // $llx=0.2460 $lly=0.1100 $urx=0.2580 $ury=0.1100 $lvl=10
*|S (A:56 0.2940 0.0150) // $llx=0.2880 $lly=0.0150 $urx=0.3000 $ury=0.0150 $lvl=10
*|S (A:57 0.2940 0.0450) // $llx=0.2880 $lly=0.0450 $urx=0.3000 $ury=0.0450 $lvl=11
*|S (A:58 0.2940 0.0750) // $llx=0.2880 $lly=0.0750 $urx=0.3000 $ury=0.0750 $lvl=10
*|S (A:59 0.2940 0.1050) // $llx=0.2880 $lly=0.1050 $urx=0.3000 $ury=0.1050 $lvl=12
*|S (A:60 0.2940 0.1100) // $llx=0.2880 $lly=0.1100 $urx=0.3000 $ury=0.1100 $lvl=10
*|S (A:61 0.3360 0.0150) // $llx=0.3300 $lly=0.0150 $urx=0.3420 $ury=0.0150 $lvl=10
*|S (A:62 0.3360 0.0450) // $llx=0.3300 $lly=0.0450 $urx=0.3420 $ury=0.0450 $lvl=11
*|S (A:63 0.3360 0.0750) // $llx=0.3300 $lly=0.0750 $urx=0.3420 $ury=0.0750 $lvl=10
*|S (A:64 0.3360 0.1050) // $llx=0.3300 $lly=0.1050 $urx=0.3420 $ury=0.1050 $lvl=12
*|S (A:65 0.3360 0.1100) // $llx=0.3300 $lly=0.1100 $urx=0.3420 $ury=0.1100 $lvl=10
*|S (A:66 0.3780 0.0150) // $llx=0.3720 $lly=0.0150 $urx=0.3840 $ury=0.0150 $lvl=10
*|S (A:67 0.3780 0.0450) // $llx=0.3720 $lly=0.0450 $urx=0.3840 $ury=0.0450 $lvl=11
*|S (A:68 0.3780 0.0750) // $llx=0.3720 $lly=0.0750 $urx=0.3840 $ury=0.0750 $lvl=10
*|S (A:69 0.3780 0.1050) // $llx=0.3720 $lly=0.1050 $urx=0.3840 $ury=0.1050 $lvl=12
*|S (A:70 0.3780 0.1100) // $llx=0.3720 $lly=0.1100 $urx=0.3840 $ury=0.1100 $lvl=10
*|S (A:71 0.4200 0.0150) // $llx=0.4140 $lly=0.0150 $urx=0.4260 $ury=0.0150 $lvl=10
*|S (A:72 0.4200 0.0450) // $llx=0.4140 $lly=0.0450 $urx=0.4260 $ury=0.0450 $lvl=11
*|S (A:73 0.4200 0.0750) // $llx=0.4140 $lly=0.0750 $urx=0.4260 $ury=0.0750 $lvl=10
*|S (A:74 0.4200 0.1050) // $llx=0.4140 $lly=0.1050 $urx=0.4260 $ury=0.1050 $lvl=12
*|S (A:75 0.4200 0.1100) // $llx=0.4140 $lly=0.1100 $urx=0.4260 $ury=0.1100 $lvl=10
*|S (A:76 0.4620 0.0150) // $llx=0.4560 $lly=0.0150 $urx=0.4680 $ury=0.0150 $lvl=10
*|S (A:77 0.4620 0.0450) // $llx=0.4560 $lly=0.0450 $urx=0.4680 $ury=0.0450 $lvl=11
*|S (A:78 0.4620 0.0750) // $llx=0.4560 $lly=0.0750 $urx=0.4680 $ury=0.0750 $lvl=10
*|S (A:79 0.4620 0.1050) // $llx=0.4560 $lly=0.1050 $urx=0.4680 $ury=0.1050 $lvl=12
*|S (A:80 0.4620 0.1100) // $llx=0.4560 $lly=0.1100 $urx=0.4680 $ury=0.1100 $lvl=10
*|S (A:81 0.5040 0.0150) // $llx=0.4980 $lly=0.0150 $urx=0.5100 $ury=0.0150 $lvl=10
*|S (A:82 0.5040 0.0450) // $llx=0.4980 $lly=0.0450 $urx=0.5100 $ury=0.0450 $lvl=11
*|S (A:83 0.5040 0.0750) // $llx=0.4980 $lly=0.0750 $urx=0.5100 $ury=0.0750 $lvl=10
*|S (A:84 0.5040 0.1050) // $llx=0.4980 $lly=0.1050 $urx=0.5100 $ury=0.1050 $lvl=12
*|S (A:85 0.5040 0.1100) // $llx=0.4980 $lly=0.1100 $urx=0.5100 $ury=0.1100 $lvl=10
*|S (A:86 0.4620 0.0600) // $llx=0.4560 $lly=0.0540 $urx=0.4680 $ury=0.0660 $lvl=10
*|S (A:87 0.0420 0.0600) // $llx=0.0360 $lly=0.0540 $urx=0.0480 $ury=0.0660 $lvl=9
*|S (A:88 0.0420 0.0600) // $llx=0.0360 $lly=0.0540 $urx=0.0480 $ury=0.0660 $lvl=10
*|S (A:89 0.0840 0.0600) // $llx=0.0780 $lly=0.0540 $urx=0.0900 $ury=0.0660 $lvl=9
*|S (A:90 0.0840 0.0600) // $llx=0.0780 $lly=0.0540 $urx=0.0900 $ury=0.0660 $lvl=10
*|S (A:91 0.1260 0.0600) // $llx=0.1200 $lly=0.0540 $urx=0.1320 $ury=0.0660 $lvl=9
*|S (A:92 0.1260 0.0600) // $llx=0.1200 $lly=0.0540 $urx=0.1320 $ury=0.0660 $lvl=10
*|S (A:93 0.1680 0.0600) // $llx=0.1620 $lly=0.0540 $urx=0.1740 $ury=0.0660 $lvl=9
*|S (A:94 0.1680 0.0600) // $llx=0.1620 $lly=0.0540 $urx=0.1740 $ury=0.0660 $lvl=10
*|S (A:95 0.2100 0.0600) // $llx=0.2040 $lly=0.0540 $urx=0.2160 $ury=0.0660 $lvl=9
*|S (A:96 0.2100 0.0600) // $llx=0.2040 $lly=0.0540 $urx=0.2160 $ury=0.0660 $lvl=10
*|S (A:97 0.2520 0.0600) // $llx=0.2460 $lly=0.0540 $urx=0.2580 $ury=0.0660 $lvl=9
*|S (A:98 0.2520 0.0600) // $llx=0.2460 $lly=0.0540 $urx=0.2580 $ury=0.0660 $lvl=10
*|S (A:99 0.2940 0.0600) // $llx=0.2880 $lly=0.0540 $urx=0.3000 $ury=0.0660 $lvl=9
*|S (A:100 0.2940 0.0600) // $llx=0.2880 $lly=0.0540 $urx=0.3000 $ury=0.0660 $lvl=10
*|S (A:101 0.3360 0.0600) // $llx=0.3300 $lly=0.0540 $urx=0.3420 $ury=0.0660 $lvl=9
*|S (A:102 0.3360 0.0600) // $llx=0.3300 $lly=0.0540 $urx=0.3420 $ury=0.0660 $lvl=10
*|S (A:103 0.3780 0.0600) // $llx=0.3720 $lly=0.0540 $urx=0.3840 $ury=0.0660 $lvl=9
*|S (A:104 0.3780 0.0600) // $llx=0.3720 $lly=0.0540 $urx=0.3840 $ury=0.0660 $lvl=10
*|S (A:105 0.4200 0.0600) // $llx=0.4140 $lly=0.0540 $urx=0.4260 $ury=0.0660 $lvl=9
*|S (A:106 0.4200 0.0600) // $llx=0.4140 $lly=0.0540 $urx=0.4260 $ury=0.0660 $lvl=10
*|S (A:107 0.4830 0.0600) // $llx=0.4770 $lly=0.0540 $urx=0.4890 $ury=0.0660 $lvl=9
*|S (A:108 0.4830 0.0600) // $llx=0.4770 $lly=0.0540 $urx=0.4890 $ury=0.0660 $lvl=14
*|S (A:109 0.4890 0.0600) // $llx=0.4890 $lly=0.0540 $urx=0.4890 $ury=0.0660 $lvl=9
*|S (A:110 0.0210 0.1020) // $llx=0.0150 $lly=0.1020 $urx=0.0270 $ury=0.1020 $lvl=9
*|S (A:111 0.0420 0.0100) // $llx=0.0360 $lly=0.0100 $urx=0.0480 $ury=0.0100 $lvl=10
*|S (A:112 0.0840 0.0100) // $llx=0.0780 $lly=0.0100 $urx=0.0900 $ury=0.0100 $lvl=10
*|S (A:113 0.1260 0.0100) // $llx=0.1200 $lly=0.0100 $urx=0.1320 $ury=0.0100 $lvl=10
*|S (A:114 0.1680 0.0100) // $llx=0.1620 $lly=0.0100 $urx=0.1740 $ury=0.0100 $lvl=10
*|S (A:115 0.2100 0.0100) // $llx=0.2040 $lly=0.0100 $urx=0.2160 $ury=0.0100 $lvl=10
*|S (A:116 0.2520 0.0100) // $llx=0.2460 $lly=0.0100 $urx=0.2580 $ury=0.0100 $lvl=10
*|S (A:117 0.2940 0.0100) // $llx=0.2880 $lly=0.0100 $urx=0.3000 $ury=0.0100 $lvl=10
*|S (A:118 0.3360 0.0100) // $llx=0.3300 $lly=0.0100 $urx=0.3420 $ury=0.0100 $lvl=10
*|S (A:119 0.3780 0.0100) // $llx=0.3720 $lly=0.0100 $urx=0.3840 $ury=0.0100 $lvl=10
*|S (A:120 0.4200 0.0100) // $llx=0.4140 $lly=0.0100 $urx=0.4260 $ury=0.0100 $lvl=10
*|S (A:121 0.4620 0.0100) // $llx=0.4560 $lly=0.0100 $urx=0.4680 $ury=0.0100 $lvl=10
*|S (A:122 0.5040 0.0100) // $llx=0.4980 $lly=0.0100 $urx=0.5100 $ury=0.0100 $lvl=10
*|S (A:123 0.5040 0.0600) // $llx=0.4980 $lly=0.0540 $urx=0.5100 $ury=0.0660 $lvl=10
*|S (A:124 0.0210 0.0180) // $llx=0.0150 $lly=0.0180 $urx=0.0270 $ury=0.0180 $lvl=9
Cg1_1 A 0 1.76928e-18
Cg1_2 A:26 0 6.02191e-20
Cg1_3 A:27 0 2.43715e-19
Cg1_4 A:28 0 2.6987e-19
Cg1_5 A:29 0 3.75304e-19
Cg1_6 A:30 0 1.72208e-19
Cg1_7 A:31 0 6.11935e-20
Cg1_8 A:32 0 2.43715e-19
Cg1_9 A:33 0 2.70364e-19
Cg1_10 A:34 0 3.68393e-19
Cg1_11 A:35 0 1.74064e-19
Cg1_12 A:36 0 6.11935e-20
Cg1_13 A:37 0 2.43715e-19
Cg1_14 A:38 0 2.70364e-19
Cg1_15 A:39 0 3.68393e-19
Cg1_16 A:40 0 1.74064e-19
Cg1_17 A:41 0 6.11935e-20
Cg1_18 A:42 0 2.43715e-19
Cg1_19 A:43 0 2.70364e-19
Cg1_20 A:44 0 3.68393e-19
Cg1_21 A:45 0 1.74064e-19
Cg1_22 A:46 0 6.11935e-20
Cg1_23 A:47 0 2.43715e-19
Cg1_24 A:48 0 2.70364e-19
Cg1_25 A:49 0 3.68393e-19
Cg1_26 A:50 0 1.74064e-19
Cg1_27 A:51 0 6.11935e-20
Cg1_28 A:52 0 2.43715e-19
Cg1_29 A:53 0 2.70364e-19
Cg1_30 A:54 0 3.68393e-19
Cg1_31 A:55 0 1.74064e-19
Cg1_32 A:56 0 6.11935e-20
Cg1_33 A:57 0 2.43715e-19
Cg1_34 A:58 0 2.70364e-19
Cg1_35 A:59 0 3.68393e-19
Cg1_36 A:60 0 1.74064e-19
Cg1_37 A:61 0 6.11935e-20
Cg1_38 A:62 0 2.43715e-19
Cg1_39 A:63 0 2.70364e-19
Cg1_40 A:64 0 3.68393e-19
Cg1_41 A:65 0 1.74064e-19
Cg1_42 A:66 0 6.11935e-20
Cg1_43 A:67 0 2.43715e-19
Cg1_44 A:68 0 2.70364e-19
Cg1_45 A:69 0 3.68393e-19
Cg1_46 A:70 0 1.74064e-19
Cg1_47 A:71 0 6.11935e-20
Cg1_48 A:72 0 2.43715e-19
Cg1_49 A:73 0 2.70364e-19
Cg1_50 A:74 0 3.68393e-19
Cg1_51 A:75 0 1.74064e-19
Cg1_52 A:76 0 4.06191e-20
Cg1_53 A:77 0 2.43715e-19
Cg1_54 A:78 0 2.70364e-19
Cg1_55 A:79 0 3.68393e-19
Cg1_56 A:80 0 1.74064e-19
Cg1_57 A:81 0 3.64468e-19
Cg1_58 A:82 0 2.43715e-19
Cg1_59 A:83 0 1.76504e-18
Cg1_60 A:84 0 2.43715e-19
Cg1_61 A:85 0 4.27645e-19
Cg1_62 A:86 0 5.52035e-19
Cg1_63 A:88 0 7.35588e-20
Cg1_64 A:90 0 7.35727e-20
Cg1_65 A:92 0 7.35727e-20
Cg1_66 A:94 0 7.35727e-20
Cg1_67 A:96 0 7.35727e-20
Cg1_68 A:98 0 7.35727e-20
Cg1_69 A:100 0 7.35727e-20
Cg1_70 A:102 0 7.35727e-20
Cg1_71 A:104 0 7.35727e-20
Cg1_72 A:106 0 7.35727e-20
Cg1_73 A:109 0 6.84847e-18
Cg1_74 A:110 0 1.9395e-18
R1_1 A A:110 14.5833 $l=0.0420 $w=0.0120 $lvl=9
R1_2 A A:124 13.5417 $l=0.0420 $w=0.0120 $lvl=9
R1_3 A A:87 7.29167 $l=0.0210 $w=0.0120 $lvl=9
R1_4 MM22:GATE A:82 6.57895 $l=0.0150 $w=0.0120 $lvl=11
R1_5 MM22:GATE A:81 6.57895 $l=0.0150 $w=0.0120 $lvl=11
R1_6 MM2:GATE A:37 6.57895 $l=0.0150 $w=0.0120 $lvl=11
R1_7 MM2:GATE A:36 6.57895 $l=0.0150 $w=0.0120 $lvl=11
R1_8 MM1:GATE A:32 6.57895 $l=0.0150 $w=0.0120 $lvl=11
R1_9 MM1:GATE A:31 6.57895 $l=0.0150 $w=0.0120 $lvl=11
R1_10 MM0:GATE A:27 6.57895 $l=0.0150 $w=0.0120 $lvl=11
R1_11 MM0:GATE A:26 6.57895 $l=0.0150 $w=0.0120 $lvl=11
R1_12 MM23:GATE A:84 6.57895 $l=0.0150 $w=0.0120 $lvl=12
R1_13 MM23:GATE A:83 6.57895 $l=0.0150 $w=0.0120 $lvl=12
R1_14 MM20:GATE A:79 6.57895 $l=0.0150 $w=0.0120 $lvl=12
R1_15 MM20:GATE A:78 6.57895 $l=0.0150 $w=0.0120 $lvl=12
R1_16 MM19:GATE A:74 6.57895 $l=0.0150 $w=0.0120 $lvl=12
R1_17 MM19:GATE A:73 6.57895 $l=0.0150 $w=0.0120 $lvl=12
R1_18 MM16:GATE A:69 6.57895 $l=0.0150 $w=0.0120 $lvl=12
R1_19 MM16:GATE A:68 6.57895 $l=0.0150 $w=0.0120 $lvl=12
R1_20 MM15:GATE A:64 6.57895 $l=0.0150 $w=0.0120 $lvl=12
R1_21 MM15:GATE A:63 6.57895 $l=0.0150 $w=0.0120 $lvl=12
R1_22 MM14:GATE A:59 6.57895 $l=0.0150 $w=0.0120 $lvl=12
R1_23 MM14:GATE A:58 6.57895 $l=0.0150 $w=0.0120 $lvl=12
R1_24 MM13:GATE A:54 6.57895 $l=0.0150 $w=0.0120 $lvl=12
R1_25 MM13:GATE A:53 6.57895 $l=0.0150 $w=0.0120 $lvl=12
R1_26 MM21:GATE A:77 6.57895 $l=0.0150 $w=0.0120 $lvl=11
R1_27 MM21:GATE A:76 6.57895 $l=0.0150 $w=0.0120 $lvl=11
R1_28 MM12:GATE A:49 6.57895 $l=0.0150 $w=0.0120 $lvl=12
R1_29 MM12:GATE A:48 6.57895 $l=0.0150 $w=0.0120 $lvl=12
R1_30 MM11:GATE A:44 6.57895 $l=0.0150 $w=0.0120 $lvl=12
R1_31 MM11:GATE A:43 6.57895 $l=0.0150 $w=0.0120 $lvl=12
R1_32 MM10:GATE A:39 6.57895 $l=0.0150 $w=0.0120 $lvl=12
R1_33 MM10:GATE A:38 6.57895 $l=0.0150 $w=0.0120 $lvl=12
R1_34 MM9:GATE A:34 6.57895 $l=0.0150 $w=0.0120 $lvl=12
R1_35 MM9:GATE A:33 6.57895 $l=0.0150 $w=0.0120 $lvl=12
R1_36 MM8:GATE A:29 6.57895 $l=0.0150 $w=0.0120 $lvl=12
R1_37 MM8:GATE A:28 6.57895 $l=0.0150 $w=0.0120 $lvl=12
R1_38 MM18:GATE A:72 6.57895 $l=0.0150 $w=0.0120 $lvl=11
R1_39 MM18:GATE A:71 6.57895 $l=0.0150 $w=0.0120 $lvl=11
R1_40 MM17:GATE A:67 6.57895 $l=0.0150 $w=0.0120 $lvl=11
R1_41 MM17:GATE A:66 6.57895 $l=0.0150 $w=0.0120 $lvl=11
R1_42 MM7:GATE A:62 6.57895 $l=0.0150 $w=0.0120 $lvl=11
R1_43 MM7:GATE A:61 6.57895 $l=0.0150 $w=0.0120 $lvl=11
R1_44 MM6:GATE A:57 6.57895 $l=0.0150 $w=0.0120 $lvl=11
R1_45 MM6:GATE A:56 6.57895 $l=0.0150 $w=0.0120 $lvl=11
R1_46 MM5:GATE A:52 6.57895 $l=0.0150 $w=0.0120 $lvl=11
R1_47 MM5:GATE A:51 6.57895 $l=0.0150 $w=0.0120 $lvl=11
R1_48 MM4:GATE A:47 6.57895 $l=0.0150 $w=0.0120 $lvl=11
R1_49 MM4:GATE A:46 6.57895 $l=0.0150 $w=0.0120 $lvl=11
R1_50 MM3:GATE A:42 6.57895 $l=0.0150 $w=0.0120 $lvl=11
R1_51 MM3:GATE A:41 6.57895 $l=0.0150 $w=0.0120 $lvl=11
R1_52 A:26 A:111 2.19298 $l=0.0050 $w=0.0120 $lvl=10
R1_53 A:27 A:88 6.57895 $l=0.0150 $w=0.0120 $lvl=10
R1_54 A:28 A:88 6.57895 $l=0.0150 $w=0.0120 $lvl=10
R1_55 A:29 A:30 2.19298 $l=0.0050 $w=0.0120 $lvl=10
R1_56 A:31 A:112 2.19298 $l=0.0050 $w=0.0120 $lvl=10
R1_57 A:32 A:90 6.57895 $l=0.0150 $w=0.0120 $lvl=10
R1_58 A:33 A:90 6.57895 $l=0.0150 $w=0.0120 $lvl=10
R1_59 A:34 A:35 2.19298 $l=0.0050 $w=0.0120 $lvl=10
R1_60 A:36 A:113 2.19298 $l=0.0050 $w=0.0120 $lvl=10
R1_61 A:37 A:92 6.57895 $l=0.0150 $w=0.0120 $lvl=10
R1_62 A:38 A:92 6.57895 $l=0.0150 $w=0.0120 $lvl=10
R1_63 A:39 A:40 2.19298 $l=0.0050 $w=0.0120 $lvl=10
R1_64 A:41 A:114 2.19298 $l=0.0050 $w=0.0120 $lvl=10
R1_65 A:42 A:94 6.57895 $l=0.0150 $w=0.0120 $lvl=10
R1_66 A:43 A:94 6.57895 $l=0.0150 $w=0.0120 $lvl=10
R1_67 A:44 A:45 2.19298 $l=0.0050 $w=0.0120 $lvl=10
R1_68 A:46 A:115 2.19298 $l=0.0050 $w=0.0120 $lvl=10
R1_69 A:47 A:96 6.57895 $l=0.0150 $w=0.0120 $lvl=10
R1_70 A:48 A:96 6.57895 $l=0.0150 $w=0.0120 $lvl=10
R1_71 A:49 A:50 2.19298 $l=0.0050 $w=0.0120 $lvl=10
R1_72 A:51 A:116 2.19298 $l=0.0050 $w=0.0120 $lvl=10
R1_73 A:52 A:98 6.57895 $l=0.0150 $w=0.0120 $lvl=10
R1_74 A:53 A:98 6.57895 $l=0.0150 $w=0.0120 $lvl=10
R1_75 A:54 A:55 2.19298 $l=0.0050 $w=0.0120 $lvl=10
R1_76 A:56 A:117 2.19298 $l=0.0050 $w=0.0120 $lvl=10
R1_77 A:57 A:100 6.57895 $l=0.0150 $w=0.0120 $lvl=10
R1_78 A:58 A:100 6.57895 $l=0.0150 $w=0.0120 $lvl=10
R1_79 A:59 A:60 2.19298 $l=0.0050 $w=0.0120 $lvl=10
R1_80 A:61 A:118 2.19298 $l=0.0050 $w=0.0120 $lvl=10
R1_81 A:62 A:102 6.57895 $l=0.0150 $w=0.0120 $lvl=10
R1_82 A:63 A:102 6.57895 $l=0.0150 $w=0.0120 $lvl=10
R1_83 A:64 A:65 2.19298 $l=0.0050 $w=0.0120 $lvl=10
R1_84 A:66 A:119 2.19298 $l=0.0050 $w=0.0120 $lvl=10
R1_85 A:67 A:104 6.57895 $l=0.0150 $w=0.0120 $lvl=10
R1_86 A:68 A:104 6.57895 $l=0.0150 $w=0.0120 $lvl=10
R1_87 A:69 A:70 2.19298 $l=0.0050 $w=0.0120 $lvl=10
R1_88 A:71 A:120 2.19298 $l=0.0050 $w=0.0120 $lvl=10
R1_89 A:72 A:106 6.57895 $l=0.0150 $w=0.0120 $lvl=10
R1_90 A:73 A:106 6.57895 $l=0.0150 $w=0.0120 $lvl=10
R1_91 A:74 A:75 2.19298 $l=0.0050 $w=0.0120 $lvl=10
R1_92 A:76 A:121 2.19298 $l=0.0050 $w=0.0120 $lvl=10
R1_93 A:77 A:86 6.57895 $l=0.0150 $w=0.0120 $lvl=10
R1_94 A:78 A:86 6.57895 $l=0.0150 $w=0.0120 $lvl=10
R1_95 A:79 A:80 2.19298 $l=0.0050 $w=0.0120 $lvl=10
R1_96 A:81 A:122 2.19298 $l=0.0050 $w=0.0120 $lvl=10
R1_97 A:82 A:123 6.57895 $l=0.0150 $w=0.0120 $lvl=10
R1_98 A:83 A:123 6.57895 $l=0.0150 $w=0.0120 $lvl=10
R1_99 A:84 A:85 2.19298 $l=0.0050 $w=0.0120 $lvl=10
R1_100 A:86 A:108 27.7339 $l=0.0210 $w=0.0120 $lvl=14
R1_101 A:87 A:88 63.5281 $a=0.00014400 $lvl=30
R1_102 A:87 A:89 14.5833 $l=0.0420 $w=0.0120 $lvl=9
R1_103 A:89 A:90 63.5281 $a=0.00014400 $lvl=30
R1_104 A:89 A:91 14.5833 $l=0.0420 $w=0.0120 $lvl=9
R1_105 A:91 A:92 63.5281 $a=0.00014400 $lvl=30
R1_106 A:91 A:93 14.5833 $l=0.0420 $w=0.0120 $lvl=9
R1_107 A:93 A:94 63.5281 $a=0.00014400 $lvl=30
R1_108 A:93 A:95 14.5833 $l=0.0420 $w=0.0120 $lvl=9
R1_109 A:95 A:96 63.5281 $a=0.00014400 $lvl=30
R1_110 A:95 A:97 14.5833 $l=0.0420 $w=0.0120 $lvl=9
R1_111 A:97 A:98 63.5281 $a=0.00014400 $lvl=30
R1_112 A:97 A:99 14.5833 $l=0.0420 $w=0.0120 $lvl=9
R1_113 A:99 A:100 63.5281 $a=0.00014400 $lvl=30
R1_114 A:99 A:101 14.5833 $l=0.0420 $w=0.0120 $lvl=9
R1_115 A:101 A:102 63.5281 $a=0.00014400 $lvl=30
R1_116 A:101 A:103 14.5833 $l=0.0420 $w=0.0120 $lvl=9
R1_117 A:103 A:104 63.5281 $a=0.00014400 $lvl=30
R1_118 A:103 A:105 14.5833 $l=0.0420 $w=0.0120 $lvl=9
R1_119 A:105 A:106 63.5281 $a=0.00014400 $lvl=30
R1_120 A:105 A:107 21.875 $l=0.0630 $w=0.0120 $lvl=9
R1_121 A:107 A:108 63.5281 $a=0.00014400 $lvl=30
R1_122 A:107 A:109 2.08333 $l=0.0060 $w=0.0120 $lvl=9
R1_123 A:108 A:123 27.7339 $l=0.0210 $w=0.0120 $lvl=14

*|NET VSS 0.000143521PF
*|P (VSS B 0 0.2730 0.0000) // $llx=0.2670 $lly=-0.0060 $urx=0.2790 $ury=0.0060 $lvl=33
*|I (MM22:SRC MM22 SRC B 0 0.5100 0.0300) // $llx=0.5100 $lly=0.0300 $urx=0.5100 $ury=0.0300 $lvl=16
*|I (MM2:SRC MM2 SRC B 0 0.1200 0.0300) // $llx=0.1200 $lly=0.0300 $urx=0.1200 $ury=0.0300 $lvl=16
*|I (MM1:SRC MM1 SRC B 0 0.0900 0.0300) // $llx=0.0900 $lly=0.0300 $urx=0.0900 $ury=0.0300 $lvl=16
*|I (MM0:SRC MM0 SRC B 0 0.0360 0.0300) // $llx=0.0360 $lly=0.0300 $urx=0.0360 $ury=0.0300 $lvl=16
*|I (MM21:BULK MM21 BULK B 0 0.4620 0.0300) // $llx=0.4620 $lly=0.0300 $urx=0.4620 $ury=0.0300 $lvl=20
*|I (MM21:SRC MM21 SRC B 0 0.4560 0.0300) // $llx=0.4560 $lly=0.0300 $urx=0.4560 $ury=0.0300 $lvl=16
*|I (MM18:SRC MM18 SRC B 0 0.4260 0.0300) // $llx=0.4260 $lly=0.0300 $urx=0.4260 $ury=0.0300 $lvl=16
*|I (MM17:SRC MM17 SRC B 0 0.3720 0.0300) // $llx=0.3720 $lly=0.0300 $urx=0.3720 $ury=0.0300 $lvl=16
*|I (MM7:SRC MM7 SRC B 0 0.3420 0.0300) // $llx=0.3420 $lly=0.0300 $urx=0.3420 $ury=0.0300 $lvl=16
*|I (MM6:SRC MM6 SRC B 0 0.2880 0.0300) // $llx=0.2880 $lly=0.0300 $urx=0.2880 $ury=0.0300 $lvl=16
*|I (MM5:SRC MM5 SRC B 0 0.2580 0.0300) // $llx=0.2580 $lly=0.0300 $urx=0.2580 $ury=0.0300 $lvl=16
*|I (MM4:SRC MM4 SRC B 0 0.2040 0.0300) // $llx=0.2040 $lly=0.0300 $urx=0.2040 $ury=0.0300 $lvl=16
*|I (MM3:SRC MM3 SRC B 0 0.1740 0.0300) // $llx=0.1740 $lly=0.0300 $urx=0.1740 $ury=0.0300 $lvl=16
*|I (MM21:BULK MM22 BULK B 0 0.5040 0.0300) // $llx=0.5040 $lly=0.0300 $urx=0.5040 $ury=0.0300 $lvl=20
*|I (MM21:BULK MM2 BULK B 0 0.1260 0.0300) // $llx=0.1260 $lly=0.0300 $urx=0.1260 $ury=0.0300 $lvl=20
*|I (MM21:BULK MM1 BULK B 0 0.0840 0.0300) // $llx=0.0840 $lly=0.0300 $urx=0.0840 $ury=0.0300 $lvl=20
*|I (MM21:BULK MM0 BULK B 0 0.0420 0.0300) // $llx=0.0420 $lly=0.0300 $urx=0.0420 $ury=0.0300 $lvl=20
*|I (MM21:BULK MM18 BULK B 0 0.4200 0.0300) // $llx=0.4200 $lly=0.0300 $urx=0.4200 $ury=0.0300 $lvl=20
*|I (MM21:BULK MM17 BULK B 0 0.3780 0.0300) // $llx=0.3780 $lly=0.0300 $urx=0.3780 $ury=0.0300 $lvl=20
*|I (MM21:BULK MM7 BULK B 0 0.3360 0.0300) // $llx=0.3360 $lly=0.0300 $urx=0.3360 $ury=0.0300 $lvl=20
*|I (MM21:BULK MM6 BULK B 0 0.2940 0.0300) // $llx=0.2940 $lly=0.0300 $urx=0.2940 $ury=0.0300 $lvl=20
*|I (MM21:BULK MM5 BULK B 0 0.2520 0.0300) // $llx=0.2520 $lly=0.0300 $urx=0.2520 $ury=0.0300 $lvl=20
*|I (MM21:BULK MM4 BULK B 0 0.2100 0.0300) // $llx=0.2100 $lly=0.0300 $urx=0.2100 $ury=0.0300 $lvl=20
*|I (MM21:BULK MM3 BULK B 0 0.1680 0.0300) // $llx=0.1680 $lly=0.0300 $urx=0.1680 $ury=0.0300 $lvl=20
*|S (VSS:15 0.0210 0.0150) // $llx=0.0110 $lly=0.0150 $urx=0.0310 $ury=0.0150 $lvl=15
*|S (VSS:16 0.1050 0.0150) // $llx=0.0950 $lly=0.0150 $urx=0.1150 $ury=0.0150 $lvl=15
*|S (VSS:17 0.1890 0.0150) // $llx=0.1790 $lly=0.0150 $urx=0.1990 $ury=0.0150 $lvl=15
*|S (VSS:18 0.2730 0.0150) // $llx=0.2630 $lly=0.0150 $urx=0.2830 $ury=0.0150 $lvl=15
*|S (VSS:19 0.3570 0.0150) // $llx=0.3470 $lly=0.0150 $urx=0.3670 $ury=0.0150 $lvl=15
*|S (VSS:20 0.4410 0.0150) // $llx=0.4310 $lly=0.0150 $urx=0.4510 $ury=0.0150 $lvl=15
*|S (VSS:21 0.5250 0.0150) // $llx=0.5150 $lly=0.0150 $urx=0.5350 $ury=0.0150 $lvl=15
*|S (VSS:22 0.0210 0.0000) // $llx=0.0150 $lly=-0.0060 $urx=0.0270 $ury=0.0060 $lvl=9
*|S (VSS:23 0.0210 0.0000) // $llx=0.0110 $lly=-0.0060 $urx=0.0310 $ury=0.0060 $lvl=13
*|S (VSS:24 0.0630 0.0000) // $llx=0.0570 $lly=-0.0060 $urx=0.0690 $ury=0.0060 $lvl=9
*|S (VSS:25 0.0630 0.0000) // $llx=0.0570 $lly=-0.0060 $urx=0.0690 $ury=0.0060 $lvl=14
*|S (VSS:26 0.1050 0.0000) // $llx=0.0990 $lly=-0.0060 $urx=0.1110 $ury=0.0060 $lvl=9
*|S (VSS:27 0.1050 0.0000) // $llx=0.0950 $lly=-0.0060 $urx=0.1150 $ury=0.0060 $lvl=13
*|S (VSS:28 0.1470 0.0000) // $llx=0.1410 $lly=-0.0060 $urx=0.1530 $ury=0.0060 $lvl=9
*|S (VSS:29 0.1470 0.0000) // $llx=0.1410 $lly=-0.0060 $urx=0.1530 $ury=0.0060 $lvl=14
*|S (VSS:30 0.1890 0.0000) // $llx=0.1830 $lly=-0.0060 $urx=0.1950 $ury=0.0060 $lvl=9
*|S (VSS:31 0.1890 0.0000) // $llx=0.1790 $lly=-0.0060 $urx=0.1990 $ury=0.0060 $lvl=13
*|S (VSS:32 0.2310 0.0000) // $llx=0.2250 $lly=-0.0060 $urx=0.2370 $ury=0.0060 $lvl=9
*|S (VSS:33 0.2310 0.0000) // $llx=0.2250 $lly=-0.0060 $urx=0.2370 $ury=0.0060 $lvl=14
*|S (VSS:34 0.2730 0.0000) // $llx=0.2630 $lly=-0.0060 $urx=0.2830 $ury=0.0060 $lvl=13
*|S (VSS:35 0.3150 0.0000) // $llx=0.3090 $lly=-0.0060 $urx=0.3210 $ury=0.0060 $lvl=9
*|S (VSS:36 0.3150 0.0000) // $llx=0.3090 $lly=-0.0060 $urx=0.3210 $ury=0.0060 $lvl=14
*|S (VSS:37 0.3570 0.0000) // $llx=0.3510 $lly=-0.0060 $urx=0.3630 $ury=0.0060 $lvl=9
*|S (VSS:38 0.3570 0.0000) // $llx=0.3470 $lly=-0.0060 $urx=0.3670 $ury=0.0060 $lvl=13
*|S (VSS:39 0.3990 0.0000) // $llx=0.3930 $lly=-0.0060 $urx=0.4050 $ury=0.0060 $lvl=9
*|S (VSS:40 0.3990 0.0000) // $llx=0.3930 $lly=-0.0060 $urx=0.4050 $ury=0.0060 $lvl=14
*|S (VSS:41 0.4410 0.0000) // $llx=0.4350 $lly=-0.0060 $urx=0.4470 $ury=0.0060 $lvl=9
*|S (VSS:42 0.4410 0.0000) // $llx=0.4310 $lly=-0.0060 $urx=0.4510 $ury=0.0060 $lvl=13
*|S (VSS:43 0.4830 0.0000) // $llx=0.4770 $lly=-0.0060 $urx=0.4890 $ury=0.0060 $lvl=9
*|S (VSS:44 0.4830 0.0000) // $llx=0.4770 $lly=-0.0060 $urx=0.4890 $ury=0.0060 $lvl=14
*|S (VSS:45 0.5250 0.0000) // $llx=0.5190 $lly=-0.0060 $urx=0.5310 $ury=0.0060 $lvl=9
*|S (VSS:46 0.5250 0.0000) // $llx=0.5150 $lly=-0.0060 $urx=0.5350 $ury=0.0060 $lvl=13
*|S (VSS:47 0.0210 0.0450) // $llx=0.0110 $lly=0.0450 $urx=0.0310 $ury=0.0450 $lvl=15
*|S (VSS:48 0.1050 0.0450) // $llx=0.0950 $lly=0.0450 $urx=0.1150 $ury=0.0450 $lvl=15
*|S (VSS:49 0.1890 0.0450) // $llx=0.1790 $lly=0.0450 $urx=0.1990 $ury=0.0450 $lvl=15
*|S (VSS:50 0.2730 0.0450) // $llx=0.2630 $lly=0.0450 $urx=0.2830 $ury=0.0450 $lvl=15
*|S (VSS:51 0.3570 0.0450) // $llx=0.3470 $lly=0.0450 $urx=0.3670 $ury=0.0450 $lvl=15
*|S (VSS:52 0.4410 0.0450) // $llx=0.4310 $lly=0.0450 $urx=0.4510 $ury=0.0450 $lvl=15
*|S (VSS:53 0.5350 0.0600) // $llx=0.5350 $lly=-0.0100 $urx=0.5460 $ury=0.1300 $lvl=20
*|S (VSS:54 0.5250 0.0450) // $llx=0.5150 $lly=0.0450 $urx=0.5350 $ury=0.0450 $lvl=15
*|S (VSS:55 0.5800 0.0600) // $llx=0.5800 $lly=-0.0100 $urx=0.5800 $ury=0.1300 $lvl=20
*|S (VSS:56 -0.0090 0.0000) // $llx=-0.0090 $lly=-0.0060 $urx=-0.0090 $ury=0.0060 $lvl=9
*|S (VSS:57 -0.0090 0.0000) // $llx=-0.0090 $lly=-0.0060 $urx=-0.0090 $ury=0.0060 $lvl=14
*|S (VSS:58 0.5550 0.0000) // $llx=0.5550 $lly=-0.0060 $urx=0.5550 $ury=0.0060 $lvl=14
*|S (VSS:59 0.0210 0.0300) // $llx=0.0110 $lly=0.0300 $urx=0.0310 $ury=0.0300 $lvl=15
*|S (VSS:60 0.1050 0.0300) // $llx=0.0950 $lly=0.0300 $urx=0.1150 $ury=0.0300 $lvl=15
*|S (VSS:61 0.1890 0.0300) // $llx=0.1790 $lly=0.0300 $urx=0.1990 $ury=0.0300 $lvl=15
*|S (VSS:62 0.2730 0.0300) // $llx=0.2630 $lly=0.0300 $urx=0.2830 $ury=0.0300 $lvl=15
*|S (VSS:63 0.3570 0.0300) // $llx=0.3470 $lly=0.0300 $urx=0.3670 $ury=0.0300 $lvl=15
*|S (VSS:64 0.4410 0.0300) // $llx=0.4310 $lly=0.0300 $urx=0.4510 $ury=0.0300 $lvl=15
*|S (VSS:65 0.5250 0.0300) // $llx=0.5150 $lly=0.0300 $urx=0.5350 $ury=0.0300 $lvl=15
*|S (VSS:66 0.5550 0.0000) // $llx=0.5550 $lly=-0.0060 $urx=0.5550 $ury=0.0060 $lvl=9
C2_1 MM21:BULK A 4.46108e-19
C2_2 VSS:15 A 2.47645e-19
C2_3 VSS:23 A 3.44814e-19
C2_4 VSS:46 A 1.00765e-19
C2_5 VSS:47 A 4.3527e-20
C2_6 VSS:56 A 1.98358e-18
C2_7 VSS:46 A:28 4.41316e-20
C2_8 VSS:46 A:33 4.30793e-20
C2_9 VSS:46 A:38 4.30793e-20
C2_10 VSS:46 A:43 4.30793e-20
C2_11 VSS:46 A:48 4.30793e-20
C2_12 VSS:46 A:53 4.30793e-20
C2_13 VSS:46 A:58 4.30793e-20
C2_14 VSS:46 A:63 4.30793e-20
C2_15 VSS:46 A:68 4.30793e-20
C2_16 VSS:46 A:73 4.30793e-20
C2_17 VSS:46 A:76 5.3734e-19
C2_18 VSS:46 A:77 9.26205e-21
C2_19 VSS:46 A:81 5.3734e-19
C2_20 VSS:56 A:81 1.05239e-20
C2_21 VSS:46 A:82 9.26205e-21
C2_22 VSS:46 A:88 3.78951e-21
C2_23 VSS:46 A:90 3.78951e-21
C2_24 VSS:46 A:92 3.78951e-21
C2_25 VSS:46 A:94 3.78951e-21
C2_26 VSS:46 A:96 3.78951e-21
C2_27 VSS:46 A:98 3.78951e-21
C2_28 VSS:46 A:100 3.78951e-21
C2_29 VSS:46 A:102 3.78951e-21
C2_30 VSS:46 A:104 3.78951e-21
C2_31 VSS:46 A:106 3.78951e-21
C2_32 MM21:BULK A:109 1.87514e-18
C2_33 VSS:46 A:109 2.22565e-20
C2_34 VSS:56 A:109 3.17211e-18
C2_35 MM21:BULK A:110 3.03349e-19
Cg2_36 MM21:BULK 0 1.65174e-17
Cg2_37 VSS:15 0 2.656e-19
Cg2_38 VSS:16 0 2.73586e-19
Cg2_39 VSS:17 0 2.73586e-19
Cg2_40 VSS:18 0 2.73586e-19
Cg2_41 VSS:19 0 2.73586e-19
Cg2_42 VSS:20 0 2.73586e-19
Cg2_43 VSS:21 0 1.78742e-19
Cg2_44 VSS:23 0 6.02945e-19
Cg2_45 VSS:27 0 3.18278e-19
Cg2_46 VSS:31 0 3.30349e-19
Cg2_47 VSS:34 0 3.36082e-19
Cg2_48 VSS:38 0 3.34372e-19
Cg2_49 VSS:42 0 3.08268e-19
Cg2_50 VSS:46 0 4.71826e-18
Cg2_51 VSS:47 0 5.17687e-19
Cg2_52 VSS:48 0 6.21225e-19
Cg2_53 VSS:49 0 6.21225e-19
Cg2_54 VSS:50 0 6.21225e-19
Cg2_55 VSS:51 0 6.21225e-19
Cg2_56 VSS:52 0 6.21225e-19
Cg2_57 VSS:53 0 1.05618e-18
Cg2_58 VSS:54 0 5.17687e-19
Cg2_59 VSS:56 0 1.43404e-17
R2_1 VSS VSS:32 14.5833 $l=0.0420 $w=0.0120 $lvl=9
R2_2 VSS VSS:35 14.5833 $l=0.0420 $w=0.0120 $lvl=9
R2_3 VSS VSS:34 31.764 $a=0.00028800 $lvl=31
R2_4 MM22:SRC VSS:54 2.0 $l=0.0150 $w=0.0075 $lvl=16
R2_5 MM22:SRC VSS:21 2.0 $l=0.0150 $w=0.0075 $lvl=16
R2_6 MM22:SRC VSS:65 1.0 $l=0.0150 $w=0.0150 $lvl=16
R2_7 MM2:SRC VSS:48 2.0 $l=0.0150 $w=0.0075 $lvl=16
R2_8 MM2:SRC VSS:16 2.0 $l=0.0150 $w=0.0075 $lvl=16