*
*|DSPF 1.3
*|DESIGN XNOR3x1
*|DATE "Tue Oct 15 21:11:35 2024"
*|VENDOR "Synopsys"
*|PROGRAM "StarRC"
*|VERSION "V-2023.12-SP5"
*|DIVIDER .
*|DELIMITER :
**FORMAT SPF
*

** COMMENTS

** OPERATING_TEMPERATURE 25
** GLOBAL_TEMPERATURE 25
** 
** TCAD_GRD_FILE /home/gtcad/ctsai314/ITF_Modification/0_reference/3nm_FF_noBPR.nxtgrd
**   TCAD_TIME_STAMP Tue Sep 3 21:56:12 2024
**   TCADGRD_VERSION 89

.SUBCKT XNOR3x1 A B C VDD VSS Y

*|GROUND_NET 0

*LAYER_MAP

*0 SUBSTRATE
*1 m9    ITF=M9
*2 m8    ITF=M8
*3 m7    ITF=M7
*4 m6    ITF=M6
*5 m5    ITF=M5
*6 m4    ITF=M4
*7 m3    ITF=M3
*8 m2    ITF=M2
*9 m1    ITF=M1
*10 fpoly    ITF=Gate
*11 ngate    ITF=Gate
*12 pgate    ITF=Gate
*13 lisd    ITF=LISD
*14 lig    ITF=LIG
*15 sdt    ITF=SDT
*16 nsd    ITF=Active
*17 psd    ITF=Active
*18 pselect    ITF=Active
*19 well    ITF=Active
*20 sub    ITF=Active
*21 nselect    ITF=Active
*22 v8    ITF=V8
*23 v7    ITF=V7
*24 v6    ITF=V6
*25 v5    ITF=V5
*26 v4    ITF=V4
*27 v3    ITF=V3
*28 v2    ITF=V2
*29 v1    ITF=V1
*30 v0lig    ITF=V0LIG
*31 v0lisd    ITF=V0LISD
*32 well_pin    ITF=Active
*33 M1_pin    ITF=M1
*34 M2_pin    ITF=M2
*35 M3_pin    ITF=M3
*36 M4_pin    ITF=M4
*37 M5_pin    ITF=M5
*38 M6_pin    ITF=M6
*39 M7_pin    ITF=M7
*40 M8_pin    ITF=M8
*41 M9_pin    ITF=M9

*|NET A 2.4571e-05PF
*|P (A B 0 0.0630 0.0480) // $llx=0.0620 $lly=0.0470 $urx=0.0640 $ury=0.0490 $lvl=33
*|I (MM8:GATE MM8 GATE I 3.6e-19 0.0840 0.0300) // $llx=0.0840 $lly=0.0300 $urx=0.0840 $ury=0.0300 $lvl=11
*|I (MM16:GATE MM16 GATE I 3.6e-19 0.0420 0.0300) // $llx=0.0420 $lly=0.0300 $urx=0.0420 $ury=0.0300 $lvl=11
*|I (MM13:GATE MM13 GATE I 3.6e-19 0.0840 0.0900) // $llx=0.0840 $lly=0.0900 $urx=0.0840 $ury=0.0900 $lvl=12
*|I (MM17:GATE MM17 GATE I 3.6e-19 0.0420 0.0900) // $llx=0.0420 $lly=0.0900 $urx=0.0420 $ury=0.0900 $lvl=12
*|S (A:6 0.0420 0.0150) // $llx=0.0360 $lly=0.0150 $urx=0.0480 $ury=0.0150 $lvl=10
*|S (A:7 0.0420 0.0750) // $llx=0.0360 $lly=0.0750 $urx=0.0480 $ury=0.0750 $lvl=10
*|S (A:8 0.0420 0.1050) // $llx=0.0360 $lly=0.1050 $urx=0.0480 $ury=0.1050 $lvl=12
*|S (A:9 0.0420 0.1100) // $llx=0.0360 $lly=0.1100 $urx=0.0480 $ury=0.1100 $lvl=10
*|S (A:10 0.0840 0.0150) // $llx=0.0780 $lly=0.0150 $urx=0.0900 $ury=0.0150 $lvl=10
*|S (A:11 0.0840 0.0750) // $llx=0.0780 $lly=0.0750 $urx=0.0900 $ury=0.0750 $lvl=10
*|S (A:12 0.0840 0.1050) // $llx=0.0780 $lly=0.1050 $urx=0.0900 $ury=0.1050 $lvl=12
*|S (A:13 0.0840 0.1100) // $llx=0.0780 $lly=0.1100 $urx=0.0900 $ury=0.1100 $lvl=10
*|S (A:14 0.0420 0.0480) // $llx=0.0360 $lly=0.0420 $urx=0.0480 $ury=0.0540 $lvl=9
*|S (A:15 0.0420 0.0480) // $llx=0.0360 $lly=0.0420 $urx=0.0480 $ury=0.0540 $lvl=10
*|S (A:16 0.0840 0.0480) // $llx=0.0780 $lly=0.0420 $urx=0.0900 $ury=0.0540 $lvl=9
*|S (A:17 0.0840 0.0480) // $llx=0.0780 $lly=0.0420 $urx=0.0900 $ury=0.0540 $lvl=10
*|S (A:18 0.0900 0.0480) // $llx=0.0900 $lly=0.0420 $urx=0.0900 $ury=0.0540 $lvl=9
*|S (A:19 0.0420 0.1020) // $llx=0.0360 $lly=0.1020 $urx=0.0480 $ury=0.1020 $lvl=9
*|S (A:20 0.0420 0.0100) // $llx=0.0360 $lly=0.0100 $urx=0.0480 $ury=0.0100 $lvl=10
*|S (A:21 0.0840 0.0100) // $llx=0.0780 $lly=0.0100 $urx=0.0900 $ury=0.0100 $lvl=10
Cg1_1 A:6 0 6.11935e-20
Cg1_2 A:7 0 2.69338e-19
Cg1_3 A:8 0 3.68393e-19
Cg1_4 A:9 0 1.74064e-19
Cg1_5 A:10 0 6.11935e-20
Cg1_6 A:11 0 2.73484e-19
Cg1_7 A:12 0 3.68393e-19
Cg1_8 A:13 0 1.74064e-19
Cg1_9 A:15 0 2.88587e-19
Cg1_10 A:17 0 2.86523e-19
Cg1_11 A:18 0 1.45015e-18
Cg1_12 A:19 0 2.23102e-18
R1_1 A A:16 7.29167 $l=0.0210 $w=0.0120 $lvl=9
R1_2 A A:14 7.29167 $l=0.0210 $w=0.0120 $lvl=9
R1_3 MM8:GATE A:17 6.57895 $l=0.0180 $w=0.0120 $lvl=11
R1_4 MM8:GATE A:10 6.57895 $l=0.0150 $w=0.0120 $lvl=11
R1_5 MM16:GATE A:15 6.57895 $l=0.0180 $w=0.0120 $lvl=11
R1_6 MM16:GATE A:6 6.57895 $l=0.0150 $w=0.0120 $lvl=11
R1_7 MM13:GATE A:12 6.57895 $l=0.0150 $w=0.0120 $lvl=12
R1_8 MM13:GATE A:11 6.57895 $l=0.0150 $w=0.0120 $lvl=12
R1_9 MM17:GATE A:8 6.57895 $l=0.0150 $w=0.0120 $lvl=12
R1_10 MM17:GATE A:7 6.57895 $l=0.0150 $w=0.0120 $lvl=12
R1_11 A:6 A:20 2.19298 $l=0.0050 $w=0.0120 $lvl=10
R1_12 A:7 A:15 11.8421 $l=0.0270 $w=0.0120 $lvl=10
R1_13 A:8 A:9 2.19298 $l=0.0050 $w=0.0120 $lvl=10
R1_14 A:10 A:21 2.19298 $l=0.0050 $w=0.0120 $lvl=10
R1_15 A:11 A:17 11.8421 $l=0.0270 $w=0.0120 $lvl=10
R1_16 A:12 A:13 2.19298 $l=0.0050 $w=0.0120 $lvl=10
R1_17 A:14 A:15 63.5281 $a=0.00014400 $lvl=30
R1_18 A:14 A:19 18.75 $l=0.0540 $w=0.0120 $lvl=9
R1_19 A:16 A:17 63.5281 $a=0.00014400 $lvl=30
R1_20 A:16 A:18 2.08333 $l=0.0060 $w=0.0120 $lvl=9

*|NET Y 3.04406e-05PF
*|P (Y B 0 0.1470 0.0720) // $llx=0.1410 $lly=0.0660 $urx=0.1530 $ury=0.0780 $lvl=33
*|I (MM9:DRN MM9 DRN B 0 0.1320 0.0300) // $llx=0.1320 $lly=0.0300 $urx=0.1320 $ury=0.0300 $lvl=16
*|I (MM15:DRN MM15 DRN B 0 0.1620 0.0900) // $llx=0.1620 $lly=0.0900 $urx=0.1620 $ury=0.0900 $lvl=17
*|I (MM12:DRN MM12 DRN B 0 0.1320 0.0900) // $llx=0.1320 $lly=0.0900 $urx=0.1320 $ury=0.0900 $lvl=17
*|I (MM10:DRN MM10 DRN B 0 0.1620 0.0300) // $llx=0.1620 $lly=0.0300 $urx=0.1620 $ury=0.0300 $lvl=16
*|S (Y:6 0.1470 0.0750) // $llx=0.1370 $lly=0.0750 $urx=0.1570 $ury=0.0750 $lvl=13
*|S (Y:7 0.1470 0.0150) // $llx=0.1370 $lly=0.0150 $urx=0.1570 $ury=0.0150 $lvl=13
*|S (Y:8 0.1470 0.1050) // $llx=0.1370 $lly=0.1050 $urx=0.1570 $ury=0.1050 $lvl=13
*|S (Y:9 0.1470 0.0720) // $llx=0.1370 $lly=0.0660 $urx=0.1570 $ury=0.0780 $lvl=13
*|S (Y:10 0.0840 0.0720) // $llx=0.0780 $lly=0.0660 $urx=0.0900 $ury=0.0780 $lvl=9
*|S (Y:11 0.0840 0.1020) // $llx=0.0780 $lly=0.1020 $urx=0.0900 $ury=0.1020 $lvl=9
*|S (Y:12 0.1470 0.0450) // $llx=0.1370 $lly=0.0450 $urx=0.1570 $ury=0.0450 $lvl=13
*|S (Y:13 0.1470 0.0300) // $llx=0.1370 $lly=0.0300 $urx=0.1570 $ury=0.0300 $lvl=15
*|S (Y:14 0.1470 0.0900) // $llx=0.1370 $lly=0.0900 $urx=0.1570 $ury=0.0900 $lvl=15
C2_1 Y:10 A:11 3.28212e-20
C2_2 Y:10 A:12 8.63472e-21
C2_3 Y:11 A:12 1.38156e-19
C2_4 Y:11 A:13 2.56289e-20
C2_5 Y:10 A:17 3.46717e-20
C2_6 Y:10 A:18 1.93432e-18
C2_7 Y:11 A:18 9.76763e-20
C2_8 Y:10 A:19 9.05163e-19
C2_9 Y:11 A:19 1.28582e-18
Cg2_10 MM9:DRN 0 6.21225e-19
Cg2_11 MM12:DRN 0 6.20602e-19
Cg2_12 Y:6 0 5.25065e-19
Cg2_13 Y:7 0 2.55569e-19
Cg2_14 Y:8 0 2.54729e-19
Cg2_15 Y:10 0 1.07733e-18
Cg2_16 Y:11 0 5.99825e-19
R2_1 Y Y:10 22.7431 $l=0.0630 $w=0.0120 $lvl=9
R2_2 Y Y:9 63.5281 $a=0.00014400 $lvl=31
R2_3 MM9:DRN Y:7 2.0 $l=0.0150 $w=0.0075 $lvl=16
R2_4 MM9:DRN Y:12 2.0 $l=0.0150 $w=0.0075 $lvl=16
R2_5 MM9:DRN Y:13 1.0 $l=0.0150 $w=0.0150 $lvl=16
R2_6 MM15:DRN Y:8 2.0 $l=0.0150 $w=0.0075 $lvl=17
R2_7 MM15:DRN Y:6 2.0 $l=0.0150 $w=0.0075 $lvl=17
R2_8 MM15:DRN Y:14 1.0 $l=0.0150 $w=0.0150 $lvl=17
R2_9 MM12:DRN Y:6 2.0 $l=0.0150 $w=0.0075 $lvl=17
R2_10 MM12:DRN Y:8 2.0 $l=0.0150 $w=0.0075 $lvl=17
R2_11 MM12:DRN Y:14 1.0 $l=0.0150 $w=0.0150 $lvl=17
R2_12 MM10:DRN Y:12 2.0 $l=0.0150 $w=0.0075 $lvl=16
R2_13 MM10:DRN Y:7 2.0 $l=0.0150 $w=0.0075 $lvl=16
R2_14 MM10:DRN Y:13 1.0 $l=0.0150 $w=0.0150 $lvl=16
R2_15 Y:6 Y:8 17.7981 $l=0.0300 $w=0.0200 $lvl=13
R2_16 Y:6 Y:9 1.77981 $l=0.0030 $w=0.0200 $lvl=13
R2_17 Y:6 Y:14 1.87763 $l=0.0150 $w=0.0250 $lvl=17
R2_18 Y:7 Y:12 17.7981 $l=0.0300 $w=0.0200 $lvl=13
R2_19 Y:7 Y:13 1.87763 $l=0.0150 $w=0.0250 $lvl=16
R2_20 Y:8 Y:14 3.0 $l=0.0150 $w=0.0050 $lvl=17
R2_21 Y:9 Y:12 16.0183 $l=0.0270 $w=0.0200 $lvl=13
R2_22 Y:10 Y:11 10.4167 $l=0.0300 $w=0.0120 $lvl=9
R2_23 Y:12 Y:13 3.0 $l=0.0150 $w=0.0050 $lvl=16

*|NET VSS 0.000151043PF
*|P (VSS B 0 0.3150 0.0000) // $llx=0.3090 $lly=-0.0060 $urx=0.3210 $ury=0.0060 $lvl=33
*|I (MM21:SRC MM21 SRC B 0 0.5940 0.0300) // $llx=0.5940 $lly=0.0300 $urx=0.5940 $ury=0.0300 $lvl=16
*|I (MM8:SRC MM8 SRC B 0 0.0780 0.0300) // $llx=0.0780 $lly=0.0300 $urx=0.0780 $ury=0.0300 $lvl=16
*|I (MM16:SRC MM16 SRC B 0 0.0480 0.0300) // $llx=0.0480 $lly=0.0300 $urx=0.0480 $ury=0.0300 $lvl=16
*|I (MM3:SRC MM3 SRC B 0 0.5100 0.0300) // $llx=0.5100 $lly=0.0300 $urx=0.5100 $ury=0.0300 $lvl=16
*|I (MM0:SRC MM0 SRC B 0 0.3720 0.0300) // $llx=0.3720 $lly=0.0300 $urx=0.3720 $ury=0.0300 $lvl=16
*|I (MM18:SRC MM18 SRC B 0 0.3420 0.0300) // $llx=0.3420 $lly=0.0300 $urx=0.3420 $ury=0.0300 $lvl=16
*|I (MM23:SRC MM23 SRC B 0 0.2460 0.0300) // $llx=0.2460 $lly=0.0300 $urx=0.2460 $ury=0.0300 $lvl=16
*|I (MM11:BULK MM11 BULK B 0 0.2100 0.0300) // $llx=0.2100 $lly=0.0300 $urx=0.2100 $ury=0.0300 $lvl=20
*|I (MM11:SRC MM11 SRC B 0 0.2160 0.0300) // $llx=0.2160 $lly=0.0300 $urx=0.2160 $ury=0.0300 $lvl=16
*|I (MM11:BULK MM21 BULK B 0 0.5880 0.0300) // $llx=0.5880 $lly=0.0300 $urx=0.5880 $ury=0.0300 $lvl=20
*|I (MM11:BULK MM9 BULK B 0 0.1260 0.0300) // $llx=0.1260 $lly=0.0300 $urx=0.1260 $ury=0.0300 $lvl=20
*|I (MM11:BULK MM8 BULK B 0 0.0840 0.0300) // $llx=0.0840 $lly=0.0300 $urx=0.0840 $ury=0.0300 $lvl=20
*|I (MM11:BULK MM16 BULK B 0 0.0420 0.0300) // $llx=0.0420 $lly=0.0300 $urx=0.0420 $ury=0.0300 $lvl=20
*|I (MM11:BULK MM3 BULK B 0 0.5040 0.0300) // $llx=0.5040 $lly=0.0300 $urx=0.5040 $ury=0.0300 $lvl=20
*|I (MM11:BULK MM2 BULK B 0 0.4620 0.0300) // $llx=0.4620 $lly=0.0300 $urx=0.4620 $ury=0.0300 $lvl=20
*|I (MM11:BULK MM1 BULK B 0 0.4200 0.0300) // $llx=0.4200 $lly=0.0300 $urx=0.4200 $ury=0.0300 $lvl=20
*|I (MM11:BULK MM0 BULK B 0 0.3780 0.0300) // $llx=0.3780 $lly=0.0300 $urx=0.3780 $ury=0.0300 $lvl=20
*|I (MM11:BULK MM18 BULK B 0 0.3360 0.0300) // $llx=0.3360 $lly=0.0300 $urx=0.3360 $ury=0.0300 $lvl=20
*|I (MM11:BULK MM23 BULK B 0 0.2520 0.0300) // $llx=0.2520 $lly=0.0300 $urx=0.2520 $ury=0.0300 $lvl=20
*|I (MM11:BULK MM10 BULK B 0 0.1680 0.0300) // $llx=0.1680 $lly=0.0300 $urx=0.1680 $ury=0.0300 $lvl=20
*|S (VSS:11 0.0630 0.0150) // $llx=0.0530 $lly=0.0150 $urx=0.0730 $ury=0.0150 $lvl=15
*|S (VSS:12 0.2310 0.0150) // $llx=0.2210 $lly=0.0150 $urx=0.2410 $ury=0.0150 $lvl=15
*|S (VSS:13 0.3570 0.0150) // $llx=0.3470 $lly=0.0150 $urx=0.3670 $ury=0.0150 $lvl=15
*|S (VSS:14 0.5250 0.0150) // $llx=0.5150 $lly=0.0150 $urx=0.5350 $ury=0.0150 $lvl=15
*|S (VSS:15 0.6090 0.0150) // $llx=0.5990 $lly=0.0150 $urx=0.6190 $ury=0.0150 $lvl=15
*|S (VSS:16 0.0210 0.0000) // $llx=0.0150 $lly=-0.0060 $urx=0.0270 $ury=0.0060 $lvl=9
*|S (VSS:17 0.0210 0.0000) // $llx=0.0150 $lly=-0.0060 $urx=0.0270 $ury=0.0060 $lvl=14
*|S (VSS:18 0.0630 0.0000) // $llx=0.0570 $lly=-0.0060 $urx=0.0690 $ury=0.0060 $lvl=9
*|S (VSS:19 0.1050 0.0000) // $llx=0.0990 $lly=-0.0060 $urx=0.1110 $ury=0.0060 $lvl=9
*|S (VSS:20 0.1050 0.0000) // $llx=0.0990 $lly=-0.0060 $urx=0.1110 $ury=0.0060 $lvl=14
*|S (VSS:21 0.1470 0.0000) // $llx=0.1410 $lly=-0.0060 $urx=0.1530 $ury=0.0060 $lvl=9
*|S (VSS:22 0.1470 0.0000) // $llx=0.1410 $lly=-0.0060 $urx=0.1530 $ury=0.0060 $lvl=14
*|S (VSS:23 0.1890 0.0000) // $llx=0.1830 $lly=-0.0060 $urx=0.1950 $ury=0.0060 $lvl=9
*|S (VSS:24 0.1890 0.0000) // $llx=0.1830 $lly=-0.0060 $urx=0.1950 $ury=0.0060 $lvl=14
*|S (VSS:25 0.2310 0.0000) // $llx=0.2250 $lly=-0.0060 $urx=0.2370 $ury=0.0060 $lvl=9
*|S (VSS:26 0.2730 0.0000) // $llx=0.2670 $lly=-0.0060 $urx=0.2790 $ury=0.0060 $lvl=9
*|S (VSS:27 0.2730 0.0000) // $llx=0.2670 $lly=-0.0060 $urx=0.2790 $ury=0.0060 $lvl=14
*|S (VSS:28 0.3150 0.0000) // $llx=0.3090 $lly=-0.0060 $urx=0.3210 $ury=0.0060 $lvl=14
*|S (VSS:29 0.3570 0.0000) // $llx=0.3510 $lly=-0.0060 $urx=0.3630 $ury=0.0060 $lvl=9
*|S (VSS:30 0.3990 0.0000) // $llx=0.3930 $lly=-0.0060 $urx=0.4050 $ury=0.0060 $lvl=9
*|S (VSS:31 0.3990 0.0000) // $llx=0.3930 $lly=-0.0060 $urx=0.4050 $ury=0.0060 $lvl=14
*|S (VSS:32 0.4410 0.0000) // $llx=0.4350 $lly=-0.0060 $urx=0.4470 $ury=0.0060 $lvl=9
*|S (VSS:33 0.4410 0.0000) // $llx=0.4350 $lly=-0.0060 $urx=0.4470 $ury=0.0060 $lvl=14
*|S (VSS:34 0.4830 0.0000) // $llx=0.4770 $lly=-0.0060 $urx=0.4890 $ury=0.0060 $lvl=9
*|S (VSS:35 0.4830 0.0000) // $llx=0.4770 $lly=-0.0060 $urx=0.4890 $ury=0.0060 $lvl=14
*|S (VSS:36 0.5250 0.0000) // $llx=0.5190 $lly=-0.0060 $urx=0.5310 $ury=0.0060 $lvl=9
*|S (VSS:37 0.5670 0.0000) // $llx=0.5610 $lly=-0.0060 $urx=0.5730 $ury=0.0060 $lvl=9
*|S (VSS:38 0.5670 0.0000) // $llx=0.5610 $lly=-0.0060 $urx=0.5730 $ury=0.0060 $lvl=14
*|S (VSS:39 0.6090 0.0000) // $llx=0.6030 $lly=-0.0060 $urx=0.6150 $ury=0.0060 $lvl=9
*|S (VSS:40 0.6090 0.0000) // $llx=0.5990 $lly=-0.0060 $urx=0.6190 $ury=0.0060 $lvl=13
*|S (VSS:41 0.0630 0.0450) // $llx=0.0530 $lly=0.0450 $urx=0.0730 $ury=0.0450 $lvl=15
*|S (VSS:42 0.2310 0.0450) // $llx=0.2210 $lly=0.0450 $urx=0.2410 $ury=0.0450 $lvl=15
*|S (VSS:43 0.3570 0.0450) // $llx=0.3470 $lly=0.0450 $urx=0.3670 $ury=0.0450 $lvl=15
*|S (VSS:44 0.5250 0.0450) // $llx=0.5150 $lly=0.0450 $urx=0.5350 $ury=0.0450 $lvl=15
*|S (VSS:45 0.6190 0.0600) // $llx=0.6190 $lly=-0.0100 $urx=0.6300 $ury=0.1300 $lvl=20
*|S (VSS:46 0.6090 0.0450) // $llx=0.5990 $lly=0.0450 $urx=0.6190 $ury=0.0450 $lvl=15
*|S (VSS:47 0.6620 0.0600) // $llx=0.6620 $lly=-0.0100 $urx=0.6620 $ury=0.1300 $lvl=20
*|S (VSS:48 -0.0090 0.0000) // $llx=-0.0090 $lly=-0.0060 $urx=-0.0090 $ury=0.0060 $lvl=9
*|S (VSS:49 0.6390 0.0000) // $llx=0.6390 $lly=-0.0060 $urx=0.6390 $ury=0.0060 $lvl=9
*|S (VSS:50 0.5250 0.0000) // $llx=0.5150 $lly=-0.0060 $urx=0.5350 $ury=0.0060 $lvl=14
*|S (VSS:51 0.3570 0.0000) // $llx=0.3470 $lly=-0.0060 $urx=0.3670 $ury=0.0060 $lvl=14
*|S (VSS:52 0.2310 0.0000) // $llx=0.2210 $lly=-0.0060 $urx=0.2410 $ury=0.0060 $lvl=14
*|S (VSS:53 0.0630 0.0000) // $llx=0.0530 $lly=-0.0060 $urx=0.0730 $ury=0.0060 $lvl=14
*|S (VSS:54 -0.0090 0.0000) // $llx=-0.0090 $lly=-0.0060 $urx=-0.0090 $ury=0.0060 $lvl=14
*|S (VSS:55 0.6390 0.0000) // $llx=0.6390 $lly=-0.0060 $urx=0.6390 $ury=0.0060 $lvl=14
*|S (VSS:56 0.0630 0.0300) // $llx=0.0530 $lly=0.0300 $urx=0.0730 $ury=0.0300 $lvl=15
*|S (VSS:57 0.2310 0.0300) // $llx=0.2210 $lly=0.0300 $urx=0.2410 $ury=0.0300 $lvl=15
*|S (VSS:58 0.3570 0.0300) // $llx=0.3470 $lly=0.0300 $urx=0.3670 $ury=0.0300 $lvl=15
*|S (VSS:59 0.5250 0.0300) // $llx=0.5150 $lly=0.0300 $urx=0.5350 $ury=0.0300 $lvl=15
*|S (VSS:60 0.6090 0.0300) // $llx=0.5990 $lly=0.0300 $urx=0.6190 $ury=0.0300 $lvl=15
C3_1 VSS:40 A:7 4.33548e-20
C3_2 VSS:40 A:11 4.33548e-20
C3_3 MM11:BULK A:18 2.4679e-19
C3_4 VSS:11 A:18 3.78079e-20
C3_5 VSS:41 A:18 3.99757e-20
C3_6 VSS:48 A:18 2.35226e-19
C3_7 VSS:49 A:18 2.35226e-19
C3_8 VSS:53 A:18 7.53743e-20
C3_9 MM11:BULK A:19 2.31845e-19
C3_10 VSS:40 MM9:DRN 8.9439e-19
C3_11 MM11:BULK Y:6 2.197e-18
C3_12 MM11:BULK Y:7 7.99368e-19
C3_13 MM11:BULK Y:8 8.02027e-19
C3_14 MM11:BULK Y:10 2.45942e-19
C3_15 VSS:48 Y:10 4.46531e-20
C3_16 VSS:49 Y:10 4.46531e-20
C3_17 MM11:BULK Y:11 3.27006e-20
Cg3_18 MM11:BULK 0 1.90323e-17
Cg3_19 VSS:11 0 2.55569e-19
Cg3_20 VSS:12 0 2.73586e-19
Cg3_21 VSS:13 0 2.55569e-19
Cg3_22 VSS:14 0 1.78742e-19
Cg3_23 VSS:15 0 1.78742e-19
Cg3_24 VSS:40 0 5.68017e-18
Cg3_25 VSS:41 0 6.16144e-19
Cg3_26 VSS:42 0 6.21225e-19
Cg3_27 VSS:43 0 6.16144e-19
Cg3_28 VSS:44 0 5.17687e-19
Cg3_29 VSS:45 0 1.05618e-18
Cg3_30 VSS:46 0 5.17687e-19
Cg3_31 VSS:48 0 8.09915e-18
Cg3_32 VSS:49 0 8.09915e-18
Cg3_33 VSS:50 0 1.99486e-19
Cg3_34 VSS:51 0 3.25789e-19
Cg3_35 VSS:52 0 3.2723e-19
Cg3_36 VSS:53 0 3.25286e-19
R3_1 VSS VSS:29 14.5833 $l=0.0420 $w=0.0120 $lvl=9
R3_2 VSS VSS:26 14.5833 $l=0.0420 $w=0.0120 $lvl=9
R3_3 VSS VSS:28 63.5281 $a=0.00014400 $lvl=30
R3_4 MM21:SRC VSS:46 2.0 $l=0.0150 $w=0.0075 $lvl=16
R3_5 MM21:SRC VSS:15 2.0 $l=0.0150 $w=0.0075 $lvl=16
R3_6 MM21:SRC VSS:60 1.0 $l=0.0150 $w=0.0150 $lvl=16
R3_7 MM8:SRC VSS:41 2.0 $l=0.0150 $w=0.0075 $lvl=16
R3_8 MM8:SRC VSS:11 2.0 $l=0.0150 $w=0.0075 $lvl=16
R3_9 MM8:SRC VSS:56 1.0 $l=0.0150 $w=0.0150 $lvl=16
R3_10 MM16:SRC VSS:41 2.0 $l=0.0150 $w=0.0075 $lvl=16
R3_11 MM16:SRC VSS:11 2.0 $l=0.0150 $w=0.0075 $lvl=16
R3_12 MM16:SRC VSS:56 1.0 $l=0.0150 $w=0.0150 $lvl=16
R3_13 MM3:SRC VSS:44 2.0 $l=0.0150 $w=0.0075 $lvl=16
R3_14 MM3:SRC VSS:14 2.0 $l=0.0150 $w=0.0075 $lvl=16
R3_15 MM3:SRC VSS:59 1.0 $l=0.0150 $w=0.0150 $lvl=16
R3_16 MM0:SRC VSS:43 2.0 $l=0.0150 $w=0.0075 $lvl=16
R3_17 MM0:SRC VSS:13 2.0 $l=0.0150 $w=0.0075 $lvl=16
R3_18 MM0:SRC VSS:58 1.0 $l=0.0150 $w=0.0150 $lvl=16
R3_19 MM18:SRC VSS:43 2.0 $l=0.0150 $w=0.0075 $lvl=16
R3_20 MM18:SRC VSS:13 2.0 $l=0.0150 $w=0.0075 $lvl=16
R3_21 MM18:SRC VSS:58 1.0 $l=0.0150 $w=0.0150 $lvl=16
R3_22 MM23:SRC VSS:42 2.0 $l=0.0150 $w=0.0075 $lvl=16
R3_23 MM23:SRC VSS:12 2.0 $l=0.0150 $w=0.0075 $lvl=16
R3_24 MM23:SRC VSS:57 1.0 $l=0.0150 $w=0.0150 $lvl=16
R3_25 MM11:BULK VSS:45 0.356491 $l=0.4090 $w=0.1400 $lvl=20
R3_26 MM11:SRC VSS:42 2.0 $l=0.0150 $w=0.0075 $lvl=16
R3_27 MM11:SRC VSS:12 2.0 $l=0.0150 $w=0.0075 $lvl=16
R3_28 MM11:SRC VSS:57 1.0 $l=0.0150 $w=0.0150 $lvl=16
R3_29 VSS:11 VSS:56 1.87763 $l=0.0150 $w=0.0250 $lvl=16
R3_30 VSS:11 VSS:53 8.89907 $l=0.0150 $w=0.0200 $lvl=13
R3_31 VSS:12 VSS:57 1.87763 $l=0.0150 $w=0.0250 $lvl=16
R3_32 VSS:12 VSS:52 8.89907 $l=0.0150 $w=0.0200 $lvl=13
R3_33 VSS:13 VSS:58 1.87763 $l=0.0150 $w=0.0250 $lvl=16
R3_34 VSS:13 VSS:51 8.89907 $l=0.0150 $w=0.0200 $lvl=13
R3_35 VSS:14 VSS:59 2.73284 $l=0.0150 $w=0.0225 $lvl=16
R3_36 VSS:14 VSS:50 8.89907 $l=0.0150 $w=0.0200 $lvl=13
R3_37 VSS:15 VSS:60 2.73284 $l=0.0150 $w=0.0225 $lvl=16
R3_38 VSS:15 VSS:40 8.89907 $l=0.0150 $w=0.0200 $lvl=13
R3_39 VSS:16 VSS:17 63.5281 $a=0.00014400 $lvl=30
R3_40 VSS:16 VSS:48 10.4167 $l=0.0300 $w=0.0120 $lvl=9
R3_41 VSS:16 VSS:18 14.5833 $l=0.0420 $w=0.0120 $lvl=9
R3_42 VSS:17 VSS:54 39.6198 $l=0.0300 $w=0.0120 $lvl=14
R3_43 VSS:17 VSS:53 50.1851 $l=0.0420 $w=0.0120 $lvl=14
R3_44 VSS:18 VSS:19 14.5833 $l=0.0420 $w=0.0120 $lvl=9
R3_45 VSS:18 VSS:53 31.764 $a=0.00028800 $lvl=31
R3_46 VSS:19 VSS:20 63.5281 $a=0.00014400 $lvl=30
R3_47 VSS:19 VSS:21 14.5833 $l=0.0420 $w=0.0120 $lvl=9
R3_48 VSS:20 VSS:53 50.1851 $l=0.0420 $w=0.0120 $lvl=14
R3_49 VSS:20 VSS:22 55.4677 $l=0.0420 $w=0.0120 $lvl=14
R3_50 VSS:21 VSS:22 63.5281 $a=0.00014400 $lvl=30
R3_51 VSS:21 VSS:23 14.5833 $l=0.0420 $w=0.0120 $lvl=9
R3_52 VSS:22 VSS:24 55.4677 $l=0.0420 $w=0.0120 $lvl=14
R3_53 VSS:23 VSS:24 63.5281 $a=0.00014400 $lvl=30
R3_54 VSS:23 VSS:25 14.5833 $l=0.0420 $w=0.0120 $lvl=9
R3_55 VSS:24 VSS:52 50.1851 $l=0.0420 $w=0.0120 $lvl=14
R3_56 VSS:25 VSS:26 14.5833 $l=0.0420 $w=0.0120 $lvl=9
R3_57 VSS:25 VSS:52 31.764 $a=0.00028800 $lvl=31
R3_58 VSS:26 VSS:27 63.5281 $a=0.00014400 $lvl=30
R3_59 VSS:27 VSS:52 50.1851 $l=0.0420 $w=0.0120 $lvl=14
R3_60 VSS:27 VSS:28 55.4677 $l=0.0420 $w=0.0120 $lvl=14
R3_61 VSS:28 VSS:51 50.1851 $l=0.0420 $w=0.0120 $lvl=14
R3_62 VSS:29 VSS:30 14.5833 $l=0.0420 $w=0.0120 $lvl=9
R3_63 VSS:29 VSS:51 31.764 $a=0.00028800 $lvl=31
R3_64 VSS:30 VSS:31 63.5281 $a=0.00014400 $lvl=30
R3_65 VSS:30 VSS:32 14.5833 $l=0.0420 $w=0.0120 $lvl=9
R3_66 VSS:31 VSS:51 50.1851 $l=0.0420 $w=0.0120 $lvl=14
R3_67 VSS:31 VSS:33 55.4677 $l=0.0420 $w=0.0120 $lvl=14
R3_68 VSS:32 VSS:33 63.5281 $a=0.00014400 $lvl=30
R3_69 VSS:32 VSS:34 14.5833 $l=0.0420 $w=0.0120 $lvl=9
R3_70 VSS:33 VSS:35 55.4677 $l=0.0420 $w=0.0120 $lvl=14
R3_71 VSS:34 VSS:35 63.5281 $a=0.00014400 $lvl=30
R3_72 VSS:34 VSS:36 14.5833 $l=0.0420 $w=0.0120 $lvl=9
R3_73 VSS:35 VSS:50 50.1851 $l=0.0420 $w=0.0120 $lvl=14
R3_74 VSS:36 VSS:37 14.5833 $l=0.0420 $w=0.0120 $lvl=9
R3_75 VSS:36 VSS:50 31.764 $a=0.00028800 $lvl=31
R3_76 VSS:37 VSS:38 63.5281 $a=0.00014400 $lvl=30
R3_77 VSS:37 VSS:39 14.5833 $l=0.0420 $w=0.0120 $lvl=9
R3_78 VSS:38 VSS:50 50.1851 $l=0.0420 $w=0.0120 $lvl=14
R3_79 VSS:38 VSS:40 50.1851 $l=0.0420 $w=0.0120 $lvl=14
R3_80 VSS:39 VSS:40 31.764 $a=0.00028800 $lvl=31
R3_81 VSS:39 VSS:49 10.4167 $l=0.0300 $w=0.0120 $lvl=9
R3_82 VSS:40 VSS:55 34.3372 $l=0.0300 $w=0.0120 $lvl=14
R3_83 VSS:41 VSS:56 1.87763 $l=0.0150 $w=0.0250 $lvl=16
R3_84 VSS:42 VSS:57 1.87763 $l=0.0150 $w=0.0250 $lvl=16
R3_85 VSS:43 VSS:58 1.87763 $l=0.0150 $w=0.0250 $lvl=16
R3_86 VSS:44 VSS:59 2.73284 $l=0.0150 $w=0.0225 $lvl=16
R3_87 VSS:45 VSS:47 0.267857 $l=0.0430 $w=0.1400 $lvl=20
R3_88 VSS:46 VSS:60 2.73284 $l=0.0150 $w=0.0225 $lvl=16
R3_89 MM11:BULK MM11:SRC 0.01 $l=0.0060 $w=100.0000 $lvl=0

*|NET VDD 0.000173476PF
*|P (VDD B 0 0.4530 0.0720) // $llx=0.4520 $lly=0.0710 $urx=0.4540 $ury=0.0710 $lvl=19
*|P (VDD_1 B 0 0.3150 0.1200) // $llx=0.3090 $lly=0.1140 $urx=0.3210 $ury=0.1260 $lvl=33
*|I (MM20:BULK MM20 BULK B 0 0.5880 0.0900) // $llx=0.5880 $lly=0.0900 $urx=0.5880 $ury=0.0900 $lvl=19
*|I (MM20:SRC MM20 SRC B 0 0.5940 0.0900) // $llx=0.5940 $lly=0.0900 $urx=0.5940 $ury=0.0900 $lvl=17
*|I (MM6:BULK MM6 BULK B 0 0.5040 0.0900) // $llx=0.5040 $lly=0.0900 $urx=0.5040 $ury=0.0900 $lvl=19
*|I (MM6:SRC MM6 SRC B 0 0.5100 0.0900) // $llx=0.5100 $lly=0.0900 $urx=0.5100 $ury=0.0900 $lvl=17
*|I (MM7:BULK MM7 BULK B 0 0.4620 0.0900) // $llx=0.4620 $lly=0.0900 $urx=0.4620 $ury=0.0900 $lvl=19
*|I (MM4:BULK MM4 BULK B 0 0.4200 0.0900) // $llx=0.4200 $lly=0.0900 $urx=0.4200 $ury=0.0900 $lvl=19
*|I (MM5:BULK MM5 BULK B 0 0.3780 0.0900) // $llx=0.3780 $lly=0.0900 $urx=0.3780 $ury=0.0900 $lvl=19
*|I (MM5:SRC MM5 SRC B 0 0.3720 0.0900) // $llx=0.3720 $lly=0.0900 $urx=0.3720 $ury=0.0900 $lvl=17
*|I (MM19:BULK MM19 BULK B 0 0.3360 0.0900) // $llx=0.3360 $lly=0.0900 $urx=0.3360 $ury=0.0900 $lvl=19
*|I (MM19:SRC MM19 SRC B 0 0.3420 0.0900) // $llx=0.3420 $lly=0.0900 $urx=0.3420 $ury=0.0900 $lvl=17
*|I (MM22:BULK MM22 BULK B 0 0.2520 0.0900) // $llx=0.2520 $lly=0.0900 $urx=0.2520 $ury=0.0900 $lvl=19
*|I (MM22:SRC MM22 SRC B 0 0.2460 0.0900) // $llx=0.2460 $lly=0.0900 $urx=0.2460 $ury=0.0900 $lvl=17
*|I (MM14:BULK MM14 BULK B 0 0.2100 0.0900) // $llx=0.2100 $lly=0.0900 $urx=0.2100 $ury=0.0900 $lvl=19
*|I (MM14:SRC MM14 SRC B 0 0.2160 0.0900) // $llx=0.2160 $lly=0.0900 $urx=0.2160 $ury=0.0900 $lvl=17
*|I (MM15:BULK MM15 BULK B 0 0.1680 0.0900) // $llx=0.1680 $lly=0.0900 $urx=0.1680 $ury=0.0900 $lvl=19
*|I (MM12:BULK MM12 BULK B 0 0.1260 0.0900) // $llx=0.1260 $lly=0.0900 $urx=0.1260 $ury=0.0900 $lvl=19
*|I (MM13:BULK MM13 BULK B 0 0.0840 0.0900) // $llx=0.0840 $lly=0.0900 $urx=0.0840 $ury=0.0900 $lvl=19
*|I (MM13:SRC MM13 SRC B 0 0.0780 0.0900) // $llx=0.0780 $lly=0.0900 $urx=0.0780 $ury=0.0900 $lvl=17
*|I (MM17:BULK MM17 BULK B 0 0.0420 0.0900) // $llx=0.0420 $lly=0.0900 $urx=0.0420 $ury=0.0900 $lvl=19
*|I (MM17:SRC MM17 SRC B 0 0.0480 0.0900) // $llx=0.0480 $lly=0.0900 $urx=0.0480 $ury=0.0900 $lvl=17
*|S (VDD:22 0.0630 0.0750) // $llx=0.0530 $lly=0.0750 $urx=0.0730 $ury=0.0750 $lvl=15
*|S (VDD:23 0.2310 0.0750) // $llx=0.2210 $lly=0.0750 $urx=0.2410 $ury=0.0750 $lvl=15
*|S (VDD:24 0.3570 0.0750) // $llx=0.3470 $lly=0.0750 $urx=0.3670 $ury=0.0750 $lvl=15
*|S (VDD:25 0.5250 0.0750) // $llx=0.5150 $lly=0.0750 $urx=0.5350 $ury=0.0750 $lvl=15
*|S (VDD:26 0.6090 0.0750) // $llx=0.5990 $lly=0.0750 $urx=0.6190 $ury=0.0750 $lvl=15
*|S (VDD:27 0.0210 0.1200) // $llx=0.0150 $lly=0.1140 $urx=0.0270 $ury=0.1260 $lvl=9
*|S (VDD:28 0.0210 0.1200) // $llx=0.0150 $lly=0.1140 $urx=0.0270 $ury=0.1260 $lvl=14
*|S (VDD:29 0.0630 0.1200) // $llx=0.0570 $lly=0.1140 $urx=0.0690 $ury=0.1260 $lvl=9
*|S (VDD:30 0.1050 0.1200) // $llx=0.0990 $lly=0.1140 $urx=0.1110 $ury=0.1260 $lvl=9
*|S (VDD:31 0.1050 0.1200) // $llx=0.0990 $lly=0.1140 $urx=0.1110 $ury=0.1260 $lvl=14
*|S (VDD:32 0.1470 0.1200) // $llx=0.1410 $lly=0.1140 $urx=0.1530 $ury=0.1260 $lvl=9
*|S (VDD:33 0.1470 0.1200) // $llx=0.1410 $lly=0.1140 $urx=0.1530 $ury=0.1260 $lvl=14
*|S (VDD:34 0.1890 0.1200) // $llx=0.1830 $lly=0.1140 $urx=0.1950 $ury=0.1260 $lvl=9
*|S (VDD:35 0.1890 0.1200) // $llx=0.1830 $lly=0.1140 $urx=0.1950 $ury=0.1260 $lvl=14
*|S (VDD:36 0.2310 0.1200) // $llx=0.2250 $lly=0.1140 $urx=0.2370 $ury=0.1260 $lvl=9
*|S (VDD:37 0.2730 0.1200) // $llx=0.2670 $lly=0.1140 $urx=0.2790 $ury=0.1260 $lvl=9
*|S (VDD:38 0.2730 0.1200) // $llx=0.2670 $lly=0.1140 $urx=0.2790 $ury=0.1260 $lvl=14
*|S (VDD:39 0.3150 0.1200) // $llx=0.3090 $lly=0.1140 $urx=0.3210 $ury=0.1260 $lvl=14
*|S (VDD:40 0.3570 0.1200) // $llx=0.3510 $lly=0.1140 $urx=0.3630 $ury=0.1260 $lvl=9
*|S (VDD:41 0.3990 0.1200) // $llx=0.3930 $lly=0.1140 $urx=0.4050 $ury=0.1260 $lvl=9
*|S (VDD:42 0.3990 0.1200) // $llx=0.3930 $lly=0.1140 $urx=0.4050 $ury=0.1260 $lvl=14
*|S (VDD:43 0.4410 0.1200) // $llx=0.4350 $lly=0.1140 $urx=0.4470 $ury=0.1260 $lvl=9
*|S (VDD:44 0.4410 0.1200) // $llx=0.4350 $lly=0.1140 $urx=0.4470 $ury=0.1260 $lvl=14
*|S (VDD:45 0.4830 0.1200) // $llx=0.4770 $lly=0.1140 $urx=0.4890 $ury=0.1260 $lvl=9
*|S (VDD:46 0.4830 0.1200) // $llx=0.4770 $lly=0.1140 $urx=0.4890 $ury=0.1260 $lvl=14
*|S (VDD:47 0.5250 0.1200) // $llx=0.5190 $lly=0.1140 $urx=0.5310 $ury=0.1260 $lvl=9
*|S (VDD:48 0.5670 0.1200) // $llx=0.5610 $lly=0.1140 $urx=0.5730 $ury=0.1260 $lvl=9
*|S (VDD:49 0.5670 0.1200) // $llx=0.5610 $lly=0.1140 $urx=0.5730 $ury=0.1260 $lvl=14
*|S (VDD:50 0.6090 0.1200) // $llx=0.6030 $lly=0.1140 $urx=0.6150 $ury=0.1260 $lvl=9
*|S (VDD:51 0.6090 0.1200) // $llx=0.5990 $lly=0.1140 $urx=0.6190 $ury=0.1260 $lvl=13
*|S (VDD:52 0.0360 0.0900) // $llx=0.0360 $lly=0.0600 $urx=0.0360 $ury=0.1200 $lvl=18
*|S (VDD:53 0.0055 0.0900) // $llx=0.0000 $lly=0.0600 $urx=0.0110 $ury=0.1200 $lvl=18
*|S (VDD:54 0.0780 0.0900) // $llx=0.0780 $lly=0.0600 $urx=0.0780 $ury=0.1200 $lvl=18
*|S (VDD:55 0.0480 0.0600) // $llx=0.0480 $lly=0.0600 $urx=0.0480 $ury=0.1200 $lvl=19
*|S (VDD:56 0.0630 0.1050) // $llx=0.0530 $lly=0.1050 $urx=0.0730 $ury=0.1050 $lvl=15
*|S (VDD:57 0.1200 0.0900) // $llx=0.1200 $lly=0.0600 $urx=0.1200 $ury=0.1200 $lvl=18
*|S (VDD:58 0.0900 0.0600) // $llx=0.0900 $lly=0.0600 $urx=0.0900 $ury=0.1200 $lvl=19
*|S (VDD:59 0.1620 0.0900) // $llx=0.1620 $lly=0.0600 $urx=0.1620 $ury=0.1200 $lvl=18
*|S (VDD:60 0.1320 0.0600) // $llx=0.1320 $lly=0.0600 $urx=0.1320 $ury=0.1200 $lvl=19
*|S (VDD:61 0.2040 0.0900) // $llx=0.2040 $lly=0.0600 $urx=0.2040 $ury=0.1200 $lvl=18
*|S (VDD:62 0.1740 0.0600) // $llx=0.1740 $lly=0.0600 $urx=0.1740 $ury=0.1200 $lvl=19
*|S (VDD:63 0.2460 0.0900) // $llx=0.2460 $lly=0.0600 $urx=0.2460 $ury=0.1200 $lvl=18
*|S (VDD:64 0.2160 0.0600) // $llx=0.2160 $lly=0.0600 $urx=0.2160 $ury=0.1200 $lvl=19
*|S (VDD:65 0.2310 0.1050) // $llx=0.2210 $lly=0.1050 $urx=0.2410 $ury=0.1050 $lvl=15
*|S (VDD:66 0.2830 0.0900) // $llx=0.2830 $lly=0.0600 $urx=0.2830 $ury=0.1200 $lvl=18
*|S (VDD:67 0.2580 0.0600) // $llx=0.2580 $lly=0.0600 $urx=0.2580 $ury=0.1200 $lvl=19
*|S (VDD:68 0.3300 0.0900) // $llx=0.3300 $lly=0.0600 $urx=0.3300 $ury=0.1200 $lvl=18
*|S (VDD:69 0.3050 0.0600) // $llx=0.3050 $lly=0.0600 $urx=0.3050 $ury=0.1200 $lvl=19
*|S (VDD:70 0.3720 0.0900) // $llx=0.3720 $lly=0.0600 $urx=0.3720 $ury=0.1200 $lvl=18
*|S (VDD:71 0.3420 0.0600) // $llx=0.3420 $lly=0.0600 $urx=0.3420 $ury=0.1200 $lvl=19
*|S (VDD:72 0.3570 0.1050) // $llx=0.3470 $lly=0.1050 $urx=0.3670 $ury=0.1050 $lvl=15
*|S (VDD:73 0.4140 0.0900) // $llx=0.4140 $lly=0.0600 $urx=0.4140 $ury=0.1200 $lvl=18
*|S (VDD:74 0.3840 0.0600) // $llx=0.3840 $lly=0.0600 $urx=0.3840 $ury=0.1200 $lvl=19
*|S (VDD:75 0.4980 0.0900) // $llx=0.4980 $lly=0.0600 $urx=0.4980 $ury=0.1200 $lvl=18
*|S (VDD:76 0.4680 0.0600) // $llx=0.4680 $lly=0.0600 $urx=0.4680 $ury=0.1200 $lvl=19
*|S (VDD:77 0.5350 0.0900) // $llx=0.5350 $lly=0.0600 $urx=0.5350 $ury=0.1200 $lvl=18
*|S (VDD:78 0.5100 0.0600) // $llx=0.5100 $lly=0.0600 $urx=0.5100 $ury=0.1200 $lvl=19
*|S (VDD:79 0.5250 0.1050) // $llx=0.5150 $lly=0.1050 $urx=0.5350 $ury=0.1050 $lvl=15
*|S (VDD:80 0.5570 0.0600) // $llx=0.5570 $lly=0.0600 $urx=0.5570 $ury=0.1200 $lvl=19
*|S (VDD:81 0.6190 0.0900) // $llx=0.6190 $lly=0.0600 $urx=0.6300 $ury=0.1200 $lvl=18
*|S (VDD:82 0.6090 0.1050) // $llx=0.5990 $lly=0.1050 $urx=0.6190 $ury=0.1050 $lvl=15
*|S (VDD:83 -0.0090 0.1200) // $llx=-0.0090 $lly=0.1140 $urx=-0.0090 $ury=0.1260 $lvl=9
*|S (VDD:84 0.6390 0.1200) // $llx=0.6390 $lly=0.1140 $urx=0.6390 $ury=0.1260 $lvl=9
*|S (VDD:85 0.5250 0.1200) // $llx=0.5150 $lly=0.1140 $urx=0.5350 $ury=0.1260 $lvl=14
*|S (VDD:86 0.3570 0.1200) // $llx=0.3470 $lly=0.1140 $urx=0.3670 $ury=0.1260 $lvl=14
*|S (VDD:87 0.2310 0.1200) // $llx=0.2210 $lly=0.1140 $urx=0.2410 $ury=0.1260 $lvl=14
*|S (VDD:88 0.0630 0.1200) // $llx=0.0530 $lly=0.1140 $urx=0.0730 $ury=0.1260 $lvl=14
*|S (VDD:89 -0.0090 0.1200) // $llx=-0.0090 $lly=0.1140 $urx=-0.0090 $ury=0.1260 $lvl=14
*|S (VDD:90 0.6390 0.1200) // $llx=0.6390 $lly=0.1140 $urx=0.6390 $ury=0.1260 $lvl=14
*|S (VDD:91 0.0630 0.0900) // $llx=0.0530 $lly=0.0900 $urx=0.0730 $ury=0.0900 $lvl=15
*|S (VDD:92 0.2310 0.0900) // $llx=0.2210 $lly=0.0900 $urx=0.2410 $ury=0.0900 $lvl=15
*|S (VDD:93 0.3570 0.0900) // $llx=0.3470 $lly=0.0900 $urx=0.3670 $ury=0.0900 $lvl=15
*|S (VDD:94 0.5250 0.0900) // $llx=0.5150 $lly=0.0900 $urx=0.5350 $ury=0.0900 $lvl=15
*|S (VDD:95 0.6090 0.0900) // $llx=0.5990 $lly=0.0900 $urx=0.6190 $ury=0.0900 $lvl=15
C4_1 VDD:55 A:6 1.70135e-21
C4_2 VDD:51 A:7 5.6729e-20
C4_3 VDD:83 A:7 1.71069e-21
C4_4 VDD:84 A:7 1.71069e-21
C4_5 VDD:51 A:8 2.2143e-19
C4_6 VDD:83 A:8 1.91961e-20
C4_7 VDD:84 A:8 1.91961e-20
C4_8 VDD:51 A:9 1.49656e-19
C4_9 VDD:83 A:9 2.14541e-20
C4_10 VDD:84 A:9 2.14541e-20
C4_11 VDD:58 A:10 1.70135e-21
C4_12 VDD:51 A:11 5.99896e-20
C4_13 VDD:51 A:12 2.22333e-19
C4_14 VDD:83 A:12 1.91961e-20
C4_15 VDD:84 A:12 1.91961e-20
C4_16 VDD:51 A:13 1.49656e-19
C4_17 VDD:83 A:13 2.14541e-20
C4_18 VDD:84 A:13 2.14541e-20
C4_19 VDD:55 A:15 4.08251e-19
C4_20 VDD:58 A:17 4.00417e-19
C4_21 VDD:83 A:18 2.45598e-19
C4_22 VDD:84 A:18 2.45598e-19
C4_23 VDD:55 A:19 6.67644e-20
C4_24 VDD:56 A:19 4.44893e-20
C4_25 VDD:83 A:19 1.09494e-18
C4_26 VDD:84 A:19 1.09494e-18
C4_27 VDD:22 Y:10 1.52479e-20
C4_28 VDD:56 Y:10 4.21376e-21
C4_29 VDD:57 Y:10 3.15588e-20
C4_30 VDD:58 Y:10 2.02628e-20
C4_31 VDD:59 Y:10 2.20912e-20
C4_32 VDD:60 Y:10 3.35973e-20
C4_33 VDD:83 Y:10 4.89736e-19
C4_34 VDD:84 Y:10 4.89736e-19
C4_35 VDD:88 Y:10 5.60456e-20
C4_36 VDD:22 Y:11 1.17121e-19
C4_37 VDD:56 Y:11 4.21376e-20
C4_38 VDD:58 Y:11 3.36627e-20
C4_39 VDD:83 Y:11 1.05137e-18
C4_40 VDD:84 Y:11 1.05137e-18
C4_41 VDD:88 Y:11 1.90758e-19
C4_42 MM20:BULK MM11:BULK 1.68757e-20
C4_43 VDD:22 MM11:BULK 8.05221e-19
C4_44 VDD:23 MM11:BULK 7.99368e-19
C4_45 VDD:24 MM11:BULK 8.01134e-19
C4_46 VDD:80 MM11:BULK 6.9769e-20
C4_47 VDD:83 MM11:BULK 1.78296e-18
C4_48 VDD:84 MM11:BULK 1.78296e-18
C4_49 VDD:86 MM11:BULK 1.31427e-18
C4_50 VDD:87 MM11:BULK 1.30911e-18
C4_51 VDD:88 MM11:BULK 1.32308e-18
C4_52 VDD VSS:40 2.26301e-20
C4_53 VDD:51 VSS:40 3.31165e-20
C4_54 VDD:53 VSS:40 6.34918e-20
C4_55 VDD:55 VSS:40 1.33485e-21
C4_56 VDD:58 VSS:40 1.33485e-21
C4_57 VDD:60 VSS:40 2.26301e-20