*
*|DSPF 1.3
*|DESIGN BUFx10
*|DATE "Tue Oct 15 21:09:55 2024"
*|VENDOR "Synopsys"
*|PROGRAM "StarRC"
*|VERSION "V-2023.12-SP5"
*|DIVIDER .
*|DELIMITER :
**FORMAT SPF
*

** COMMENTS

** OPERATING_TEMPERATURE 25
** GLOBAL_TEMPERATURE 25
** 
** TCAD_GRD_FILE /home/gtcad/ctsai314/ITF_Modification/0_reference/3nm_FF_noBPR.nxtgrd
**   TCAD_TIME_STAMP Tue Sep 3 21:56:12 2024
**   TCADGRD_VERSION 89

.SUBCKT BUFx10 A VDD VSS Y

*|GROUND_NET 0

*LAYER_MAP

*0 SUBSTRATE
*1 m9    ITF=M9
*2 m8    ITF=M8
*3 m7    ITF=M7
*4 m6    ITF=M6
*5 m5    ITF=M5
*6 m4    ITF=M4
*7 m3    ITF=M3
*8 m2    ITF=M2
*9 m1    ITF=M1
*10 fpoly    ITF=Gate
*11 ngate    ITF=Gate
*12 pgate    ITF=Gate
*13 lisd    ITF=LISD
*14 lig    ITF=LIG
*15 sdt    ITF=SDT
*16 nsd    ITF=Active
*17 psd    ITF=Active
*18 pselect    ITF=Active
*19 well    ITF=Active
*20 sub    ITF=Active
*21 nselect    ITF=Active
*22 v8    ITF=V8
*23 v7    ITF=V7
*24 v6    ITF=V6
*25 v5    ITF=V5
*26 v4    ITF=V4
*27 v3    ITF=V3
*28 v2    ITF=V2
*29 v1    ITF=V1
*30 v0lig    ITF=V0LIG
*31 v0lisd    ITF=V0LISD
*32 well_pin    ITF=Active
*33 M1_pin    ITF=M1
*34 M2_pin    ITF=M2
*35 M3_pin    ITF=M3
*36 M4_pin    ITF=M4
*37 M5_pin    ITF=M5
*38 M6_pin    ITF=M6
*39 M7_pin    ITF=M7
*40 M8_pin    ITF=M8
*41 M9_pin    ITF=M9

*|NET A 8.65673e-05PF
*|P (A B 0 0.0210 0.0600) // $llx=0.0200 $lly=0.0590 $urx=0.0220 $ury=0.0610 $lvl=33
*|I (MM39:GATE MM39 GATE I 3.6e-19 0.4200 0.0300) // $llx=0.4200 $lly=0.0300 $urx=0.4200 $ury=0.0300 $lvl=11
*|I (MM37:GATE MM37 GATE I 3.6e-19 0.3780 0.0300) // $llx=0.3780 $lly=0.0300 $urx=0.3780 $ury=0.0300 $lvl=11
*|I (MM34:GATE MM34 GATE I 3.6e-19 0.3360 0.0300) // $llx=0.3360 $lly=0.0300 $urx=0.3360 $ury=0.0300 $lvl=11
*|I (MM32:GATE MM32 GATE I 3.6e-19 0.2940 0.0300) // $llx=0.2940 $lly=0.0300 $urx=0.2940 $ury=0.0300 $lvl=11
*|I (MM31:GATE MM31 GATE I 3.6e-19 0.2520 0.0300) // $llx=0.2520 $lly=0.0300 $urx=0.2520 $ury=0.0300 $lvl=11
*|I (MM28:GATE MM28 GATE I 3.6e-19 0.2100 0.0300) // $llx=0.2100 $lly=0.0300 $urx=0.2100 $ury=0.0300 $lvl=11
*|I (MM27:GATE MM27 GATE I 3.6e-19 0.1680 0.0300) // $llx=0.1680 $lly=0.0300 $urx=0.1680 $ury=0.0300 $lvl=11
*|I (MM24:GATE MM24 GATE I 3.6e-19 0.1260 0.0300) // $llx=0.1260 $lly=0.0300 $urx=0.1260 $ury=0.0300 $lvl=11
*|I (MM23:GATE MM23 GATE I 3.6e-19 0.0840 0.0300) // $llx=0.0840 $lly=0.0300 $urx=0.0840 $ury=0.0300 $lvl=11
*|I (MM0:GATE MM0 GATE I 3.6e-19 0.0420 0.0300) // $llx=0.0420 $lly=0.0300 $urx=0.0420 $ury=0.0300 $lvl=11
*|I (MM38:GATE MM38 GATE I 3.6e-19 0.4200 0.0900) // $llx=0.4200 $lly=0.0900 $urx=0.4200 $ury=0.0900 $lvl=12
*|I (MM36:GATE MM36 GATE I 3.6e-19 0.3780 0.0900) // $llx=0.3780 $lly=0.0900 $urx=0.3780 $ury=0.0900 $lvl=12
*|I (MM35:GATE MM35 GATE I 3.6e-19 0.3360 0.0900) // $llx=0.3360 $lly=0.0900 $urx=0.3360 $ury=0.0900 $lvl=12
*|I (MM33:GATE MM33 GATE I 3.6e-19 0.2940 0.0900) // $llx=0.2940 $lly=0.0900 $urx=0.2940 $ury=0.0900 $lvl=12
*|I (MM30:GATE MM30 GATE I 3.6e-19 0.2520 0.0900) // $llx=0.2520 $lly=0.0900 $urx=0.2520 $ury=0.0900 $lvl=12
*|I (MM29:GATE MM29 GATE I 3.6e-19 0.2100 0.0900) // $llx=0.2100 $lly=0.0900 $urx=0.2100 $ury=0.0900 $lvl=12
*|I (MM26:GATE MM26 GATE I 3.6e-19 0.1680 0.0900) // $llx=0.1680 $lly=0.0900 $urx=0.1680 $ury=0.0900 $lvl=12
*|I (MM25:GATE MM25 GATE I 3.6e-19 0.1260 0.0900) // $llx=0.1260 $lly=0.0900 $urx=0.1260 $ury=0.0900 $lvl=12
*|I (MM22:GATE MM22 GATE I 3.6e-19 0.0840 0.0900) // $llx=0.0840 $lly=0.0900 $urx=0.0840 $ury=0.0900 $lvl=12
*|I (MM1:GATE MM1 GATE I 3.6e-19 0.0420 0.0900) // $llx=0.0420 $lly=0.0900 $urx=0.0420 $ury=0.0900 $lvl=12
*|S (A:22 0.0420 0.0150) // $llx=0.0360 $lly=0.0150 $urx=0.0480 $ury=0.0150 $lvl=10
*|S (A:23 0.0420 0.0450) // $llx=0.0360 $lly=0.0450 $urx=0.0480 $ury=0.0450 $lvl=11
*|S (A:24 0.0420 0.0750) // $llx=0.0360 $lly=0.0750 $urx=0.0480 $ury=0.0750 $lvl=10
*|S (A:25 0.0420 0.1050) // $llx=0.0360 $lly=0.1050 $urx=0.0480 $ury=0.1050 $lvl=12
*|S (A:26 0.0420 0.1100) // $llx=0.0360 $lly=0.1100 $urx=0.0480 $ury=0.1100 $lvl=10
*|S (A:27 0.0840 0.0150) // $llx=0.0780 $lly=0.0150 $urx=0.0900 $ury=0.0150 $lvl=10
*|S (A:28 0.0840 0.0450) // $llx=0.0780 $lly=0.0450 $urx=0.0900 $ury=0.0450 $lvl=11
*|S (A:29 0.0840 0.0750) // $llx=0.0780 $lly=0.0750 $urx=0.0900 $ury=0.0750 $lvl=10
*|S (A:30 0.0840 0.1050) // $llx=0.0780 $lly=0.1050 $urx=0.0900 $ury=0.1050 $lvl=12
*|S (A:31 0.0840 0.1100) // $llx=0.0780 $lly=0.1100 $urx=0.0900 $ury=0.1100 $lvl=10
*|S (A:32 0.1260 0.0150) // $llx=0.1200 $lly=0.0150 $urx=0.1320 $ury=0.0150 $lvl=10
*|S (A:33 0.1260 0.0450) // $llx=0.1200 $lly=0.0450 $urx=0.1320 $ury=0.0450 $lvl=11
*|S (A:34 0.1260 0.0750) // $llx=0.1200 $lly=0.0750 $urx=0.1320 $ury=0.0750 $lvl=10
*|S (A:35 0.1260 0.1050) // $llx=0.1200 $lly=0.1050 $urx=0.1320 $ury=0.1050 $lvl=12
*|S (A:36 0.1260 0.1100) // $llx=0.1200 $lly=0.1100 $urx=0.1320 $ury=0.1100 $lvl=10
*|S (A:37 0.1680 0.0150) // $llx=0.1620 $lly=0.0150 $urx=0.1740 $ury=0.0150 $lvl=10
*|S (A:38 0.1680 0.0450) // $llx=0.1620 $lly=0.0450 $urx=0.1740 $ury=0.0450 $lvl=11
*|S (A:39 0.1680 0.0750) // $llx=0.1620 $lly=0.0750 $urx=0.1740 $ury=0.0750 $lvl=10
*|S (A:40 0.1680 0.1050) // $llx=0.1620 $lly=0.1050 $urx=0.1740 $ury=0.1050 $lvl=12
*|S (A:41 0.1680 0.1100) // $llx=0.1620 $lly=0.1100 $urx=0.1740 $ury=0.1100 $lvl=10
*|S (A:42 0.2100 0.0150) // $llx=0.2040 $lly=0.0150 $urx=0.2160 $ury=0.0150 $lvl=10
*|S (A:43 0.2100 0.0450) // $llx=0.2040 $lly=0.0450 $urx=0.2160 $ury=0.0450 $lvl=11
*|S (A:44 0.2100 0.0750) // $llx=0.2040 $lly=0.0750 $urx=0.2160 $ury=0.0750 $lvl=10
*|S (A:45 0.2100 0.1050) // $llx=0.2040 $lly=0.1050 $urx=0.2160 $ury=0.1050 $lvl=12
*|S (A:46 0.2100 0.1100) // $llx=0.2040 $lly=0.1100 $urx=0.2160 $ury=0.1100 $lvl=10
*|S (A:47 0.2520 0.0150) // $llx=0.2460 $lly=0.0150 $urx=0.2580 $ury=0.0150 $lvl=10
*|S (A:48 0.2520 0.0450) // $llx=0.2460 $lly=0.0450 $urx=0.2580 $ury=0.0450 $lvl=11
*|S (A:49 0.2520 0.0750) // $llx=0.2460 $lly=0.0750 $urx=0.2580 $ury=0.0750 $lvl=10
*|S (A:50 0.2520 0.1050) // $llx=0.2460 $lly=0.1050 $urx=0.2580 $ury=0.1050 $lvl=12
*|S (A:51 0.2520 0.1100) // $llx=0.2460 $lly=0.1100 $urx=0.2580 $ury=0.1100 $lvl=10
*|S (A:52 0.2940 0.0150) // $llx=0.2880 $lly=0.0150 $urx=0.3000 $ury=0.0150 $lvl=10
*|S (A:53 0.2940 0.0450) // $llx=0.2880 $lly=0.0450 $urx=0.3000 $ury=0.0450 $lvl=11
*|S (A:54 0.2940 0.0750) // $llx=0.2880 $lly=0.0750 $urx=0.3000 $ury=0.0750 $lvl=10
*|S (A:55 0.2940 0.1050) // $llx=0.2880 $lly=0.1050 $urx=0.3000 $ury=0.1050 $lvl=12
*|S (A:56 0.2940 0.1100) // $llx=0.2880 $lly=0.1100 $urx=0.3000 $ury=0.1100 $lvl=10
*|S (A:57 0.3360 0.0150) // $llx=0.3300 $lly=0.0150 $urx=0.3420 $ury=0.0150 $lvl=10
*|S (A:58 0.3360 0.0450) // $llx=0.3300 $lly=0.0450 $urx=0.3420 $ury=0.0450 $lvl=11
*|S (A:59 0.3360 0.0750) // $llx=0.3300 $lly=0.0750 $urx=0.3420 $ury=0.0750 $lvl=10
*|S (A:60 0.3360 0.1050) // $llx=0.3300 $lly=0.1050 $urx=0.3420 $ury=0.1050 $lvl=12
*|S (A:61 0.3360 0.1100) // $llx=0.3300 $lly=0.1100 $urx=0.3420 $ury=0.1100 $lvl=10
*|S (A:62 0.3780 0.0150) // $llx=0.3720 $lly=0.0150 $urx=0.3840 $ury=0.0150 $lvl=10
*|S (A:63 0.3780 0.0450) // $llx=0.3720 $lly=0.0450 $urx=0.3840 $ury=0.0450 $lvl=11
*|S (A:64 0.3780 0.0750) // $llx=0.3720 $lly=0.0750 $urx=0.3840 $ury=0.0750 $lvl=10
*|S (A:65 0.3780 0.1050) // $llx=0.3720 $lly=0.1050 $urx=0.3840 $ury=0.1050 $lvl=12
*|S (A:66 0.3780 0.1100) // $llx=0.3720 $lly=0.1100 $urx=0.3840 $ury=0.1100 $lvl=10
*|S (A:67 0.4200 0.0150) // $llx=0.4140 $lly=0.0150 $urx=0.4260 $ury=0.0150 $lvl=10
*|S (A:68 0.4200 0.0450) // $llx=0.4140 $lly=0.0450 $urx=0.4260 $ury=0.0450 $lvl=11
*|S (A:69 0.4200 0.0750) // $llx=0.4140 $lly=0.0750 $urx=0.4260 $ury=0.0750 $lvl=10
*|S (A:70 0.4200 0.1050) // $llx=0.4140 $lly=0.1050 $urx=0.4260 $ury=0.1050 $lvl=12
*|S (A:71 0.4200 0.1100) // $llx=0.4140 $lly=0.1100 $urx=0.4260 $ury=0.1100 $lvl=10
*|S (A:72 0.3780 0.0600) // $llx=0.3720 $lly=0.0540 $urx=0.3840 $ury=0.0660 $lvl=10
*|S (A:73 0.0420 0.0600) // $llx=0.0360 $lly=0.0540 $urx=0.0480 $ury=0.0660 $lvl=9
*|S (A:74 0.0420 0.0600) // $llx=0.0360 $lly=0.0540 $urx=0.0480 $ury=0.0660 $lvl=10
*|S (A:75 0.0840 0.0600) // $llx=0.0780 $lly=0.0540 $urx=0.0900 $ury=0.0660 $lvl=9
*|S (A:76 0.0840 0.0600) // $llx=0.0780 $lly=0.0540 $urx=0.0900 $ury=0.0660 $lvl=10
*|S (A:77 0.1260 0.0600) // $llx=0.1200 $lly=0.0540 $urx=0.1320 $ury=0.0660 $lvl=9
*|S (A:78 0.1260 0.0600) // $llx=0.1200 $lly=0.0540 $urx=0.1320 $ury=0.0660 $lvl=10
*|S (A:79 0.1680 0.0600) // $llx=0.1620 $lly=0.0540 $urx=0.1740 $ury=0.0660 $lvl=9
*|S (A:80 0.1680 0.0600) // $llx=0.1620 $lly=0.0540 $urx=0.1740 $ury=0.0660 $lvl=10
*|S (A:81 0.2100 0.0600) // $llx=0.2040 $lly=0.0540 $urx=0.2160 $ury=0.0660 $lvl=9
*|S (A:82 0.2100 0.0600) // $llx=0.2040 $lly=0.0540 $urx=0.2160 $ury=0.0660 $lvl=10
*|S (A:83 0.2520 0.0600) // $llx=0.2460 $lly=0.0540 $urx=0.2580 $ury=0.0660 $lvl=9
*|S (A:84 0.2520 0.0600) // $llx=0.2460 $lly=0.0540 $urx=0.2580 $ury=0.0660 $lvl=10
*|S (A:85 0.2940 0.0600) // $llx=0.2880 $lly=0.0540 $urx=0.3000 $ury=0.0660 $lvl=9
*|S (A:86 0.2940 0.0600) // $llx=0.2880 $lly=0.0540 $urx=0.3000 $ury=0.0660 $lvl=10
*|S (A:87 0.3360 0.0600) // $llx=0.3300 $lly=0.0540 $urx=0.3420 $ury=0.0660 $lvl=9
*|S (A:88 0.3360 0.0600) // $llx=0.3300 $lly=0.0540 $urx=0.3420 $ury=0.0660 $lvl=10
*|S (A:89 0.3990 0.0600) // $llx=0.3930 $lly=0.0540 $urx=0.4050 $ury=0.0660 $lvl=9
*|S (A:90 0.3990 0.0600) // $llx=0.3930 $lly=0.0540 $urx=0.4050 $ury=0.0660 $lvl=14
*|S (A:91 0.4050 0.0600) // $llx=0.4050 $lly=0.0540 $urx=0.4050 $ury=0.0660 $lvl=9
*|S (A:92 0.0210 0.1020) // $llx=0.0150 $lly=0.1020 $urx=0.0270 $ury=0.1020 $lvl=9
*|S (A:93 0.0420 0.0100) // $llx=0.0360 $lly=0.0100 $urx=0.0480 $ury=0.0100 $lvl=10
*|S (A:94 0.0840 0.0100) // $llx=0.0780 $lly=0.0100 $urx=0.0900 $ury=0.0100 $lvl=10
*|S (A:95 0.1260 0.0100) // $llx=0.1200 $lly=0.0100 $urx=0.1320 $ury=0.0100 $lvl=10
*|S (A:96 0.1680 0.0100) // $llx=0.1620 $lly=0.0100 $urx=0.1740 $ury=0.0100 $lvl=10
*|S (A:97 0.2100 0.0100) // $llx=0.2040 $lly=0.0100 $urx=0.2160 $ury=0.0100 $lvl=10
*|S (A:98 0.2520 0.0100) // $llx=0.2460 $lly=0.0100 $urx=0.2580 $ury=0.0100 $lvl=10
*|S (A:99 0.2940 0.0100) // $llx=0.2880 $lly=0.0100 $urx=0.3000 $ury=0.0100 $lvl=10
*|S (A:100 0.3360 0.0100) // $llx=0.3300 $lly=0.0100 $urx=0.3420 $ury=0.0100 $lvl=10
*|S (A:101 0.3780 0.0100) // $llx=0.3720 $lly=0.0100 $urx=0.3840 $ury=0.0100 $lvl=10
*|S (A:102 0.4200 0.0100) // $llx=0.4140 $lly=0.0100 $urx=0.4260 $ury=0.0100 $lvl=10
*|S (A:103 0.4200 0.0600) // $llx=0.4140 $lly=0.0540 $urx=0.4260 $ury=0.0660 $lvl=10
*|S (A:104 0.0210 0.0180) // $llx=0.0150 $lly=0.0180 $urx=0.0270 $ury=0.0180 $lvl=9
Cg1_1 A 0 1.76928e-18
Cg1_2 A:22 0 6.02191e-20
Cg1_3 A:23 0 2.43715e-19
Cg1_4 A:24 0 2.6987e-19
Cg1_5 A:25 0 3.75304e-19
Cg1_6 A:26 0 1.72208e-19
Cg1_7 A:27 0 6.11935e-20
Cg1_8 A:28 0 2.43715e-19
Cg1_9 A:29 0 2.70364e-19
Cg1_10 A:30 0 3.68393e-19
Cg1_11 A:31 0 1.74064e-19
Cg1_12 A:32 0 6.11935e-20
Cg1_13 A:33 0 2.43715e-19
Cg1_14 A:34 0 2.70364e-19
Cg1_15 A:35 0 3.68393e-19
Cg1_16 A:36 0 1.74064e-19
Cg1_17 A:37 0 6.11935e-20
Cg1_18 A:38 0 2.43715e-19
Cg1_19 A:39 0 2.70364e-19
Cg1_20 A:40 0 3.68393e-19
Cg1_21 A:41 0 1.74064e-19
Cg1_22 A:42 0 6.11935e-20
Cg1_23 A:43 0 2.43715e-19
Cg1_24 A:44 0 2.70364e-19
Cg1_25 A:45 0 3.68393e-19
Cg1_26 A:46 0 1.74064e-19
Cg1_27 A:47 0 6.11935e-20
Cg1_28 A:48 0 2.43715e-19
Cg1_29 A:49 0 2.70364e-19
Cg1_30 A:50 0 3.68393e-19
Cg1_31 A:51 0 1.74064e-19
Cg1_32 A:52 0 6.11935e-20
Cg1_33 A:53 0 2.43715e-19
Cg1_34 A:54 0 2.70364e-19
Cg1_35 A:55 0 3.68393e-19
Cg1_36 A:56 0 1.74064e-19
Cg1_37 A:57 0 6.11935e-20
Cg1_38 A:58 0 2.43715e-19
Cg1_39 A:59 0 2.70364e-19
Cg1_40 A:60 0 3.68393e-19
Cg1_41 A:61 0 1.74064e-19
Cg1_42 A:62 0 6.11935e-20
Cg1_43 A:63 0 2.43715e-19
Cg1_44 A:64 0 2.70364e-19
Cg1_45 A:65 0 3.68393e-19
Cg1_46 A:66 0 1.74064e-19
Cg1_47 A:67 0 6.11935e-20
Cg1_48 A:68 0 2.43715e-19
Cg1_49 A:69 0 2.71935e-19
Cg1_50 A:70 0 3.68393e-19
Cg1_51 A:71 0 1.74064e-19
Cg1_52 A:72 0 2.76666e-19
Cg1_53 A:74 0 7.35588e-20
Cg1_54 A:76 0 7.35727e-20
Cg1_55 A:78 0 7.35727e-20
Cg1_56 A:80 0 7.35727e-20
Cg1_57 A:82 0 7.35727e-20
Cg1_58 A:84 0 7.35727e-20
Cg1_59 A:86 0 7.35727e-20
Cg1_60 A:88 0 7.35727e-20
Cg1_61 A:91 0 5.72439e-18
Cg1_62 A:92 0 1.9395e-18
R1_1 A A:73 7.29167 $l=0.0210 $w=0.0120 $lvl=9
R1_2 A A:92 14.5833 $l=0.0420 $w=0.0120 $lvl=9
R1_3 A A:104 13.5417 $l=0.0420 $w=0.0120 $lvl=9
R1_4 MM39:GATE A:68 6.57895 $l=0.0150 $w=0.0120 $lvl=11
R1_5 MM39:GATE A:67 6.57895 $l=0.0150 $w=0.0120 $lvl=11
R1_6 MM37:GATE A:63 6.57895 $l=0.0150 $w=0.0120 $lvl=11
R1_7 MM37:GATE A:62 6.57895 $l=0.0150 $w=0.0120 $lvl=11
R1_8 MM34:GATE A:58 6.57895 $l=0.0150 $w=0.0120 $lvl=11
R1_9 MM34:GATE A:57 6.57895 $l=0.0150 $w=0.0120 $lvl=11
R1_10 MM32:GATE A:53 6.57895 $l=0.0150 $w=0.0120 $lvl=11
R1_11 MM32:GATE A:52 6.57895 $l=0.0150 $w=0.0120 $lvl=11
R1_12 MM31:GATE A:48 6.57895 $l=0.0150 $w=0.0120 $lvl=11
R1_13 MM31:GATE A:47 6.57895 $l=0.0150 $w=0.0120 $lvl=11
R1_14 MM28:GATE A:43 6.57895 $l=0.0150 $w=0.0120 $lvl=11
R1_15 MM28:GATE A:42 6.57895 $l=0.0150 $w=0.0120 $lvl=11
R1_16 MM27:GATE A:38 6.57895 $l=0.0150 $w=0.0120 $lvl=11
R1_17 MM27:GATE A:37 6.57895 $l=0.0150 $w=0.0120 $lvl=11
R1_18 MM24:GATE A:33 6.57895 $l=0.0150 $w=0.0120 $lvl=11
R1_19 MM24:GATE A:32 6.57895 $l=0.0150 $w=0.0120 $lvl=11
R1_20 MM23:GATE A:28 6.57895 $l=0.0150 $w=0.0120 $lvl=11
R1_21 MM23:GATE A:27 6.57895 $l=0.0150 $w=0.0120 $lvl=11
R1_22 MM0:GATE A:23 6.57895 $l=0.0150 $w=0.0120 $lvl=11
R1_23 MM0:GATE A:22 6.57895 $l=0.0150 $w=0.0120 $lvl=11
R1_24 MM38:GATE A:70 6.57895 $l=0.0150 $w=0.0120 $lvl=12
R1_25 MM38:GATE A:69 6.57895 $l=0.0150 $w=0.0120 $lvl=12
R1_26 MM36:GATE A:65 6.57895 $l=0.0150 $w=0.0120 $lvl=12
R1_27 MM36:GATE A:64 6.57895 $l=0.0150 $w=0.0120 $lvl=12
R1_28 MM35:GATE A:60 6.57895 $l=0.0150 $w=0.0120 $lvl=12
R1_29 MM35:GATE A:59 6.57895 $l=0.0150 $w=0.0120 $lvl=12
R1_30 MM33:GATE A:55 6.57895 $l=0.0150 $w=0.0120 $lvl=12
R1_31 MM33:GATE A:54 6.57895 $l=0.0150 $w=0.0120 $lvl=12
R1_32 MM30:GATE A:50 6.57895 $l=0.0150 $w=0.0120 $lvl=12
R1_33 MM30:GATE A:49 6.57895 $l=0.0150 $w=0.0120 $lvl=12
R1_34 MM29:GATE A:45 6.57895 $l=0.0150 $w=0.0120 $lvl=12
R1_35 MM29:GATE A:44 6.57895 $l=0.0150 $w=0.0120 $lvl=12
R1_36 MM26:GATE A:40 6.57895 $l=0.0150 $w=0.0120 $lvl=12
R1_37 MM26:GATE A:39 6.57895 $l=0.0150 $w=0.0120 $lvl=12
R1_38 MM25:GATE A:35 6.57895 $l=0.0150 $w=0.0120 $lvl=12
R1_39 MM25:GATE A:34 6.57895 $l=0.0150 $w=0.0120 $lvl=12
R1_40 MM22:GATE A:30 6.57895 $l=0.0150 $w=0.0120 $lvl=12
R1_41 MM22:GATE A:29 6.57895 $l=0.0150 $w=0.0120 $lvl=12
R1_42 MM1:GATE A:25 6.57895 $l=0.0150 $w=0.0120 $lvl=12
R1_43 MM1:GATE A:24 6.57895 $l=0.0150 $w=0.0120 $lvl=12
R1_44 A:22 A:93 2.19298 $l=0.0050 $w=0.0120 $lvl=10
R1_45 A:23 A:74 6.57895 $l=0.0150 $w=0.0120 $lvl=10
R1_46 A:24 A:74 6.57895 $l=0.0150 $w=0.0120 $lvl=10
R1_47 A:25 A:26 2.19298 $l=0.0050 $w=0.0120 $lvl=10
R1_48 A:27 A:94 2.19298 $l=0.0050 $w=0.0120 $lvl=10
R1_49 A:28 A:76 6.57895 $l=0.0150 $w=0.0120 $lvl=10
R1_50 A:29 A:76 6.57895 $l=0.0150 $w=0.0120 $lvl=10
R1_51 A:30 A:31 2.19298 $l=0.0050 $w=0.0120 $lvl=10
R1_52 A:32 A:95 2.19298 $l=0.0050 $w=0.0120 $lvl=10
R1_53 A:33 A:78 6.57895 $l=0.0150 $w=0.0120 $lvl=10
R1_54 A:34 A:78 6.57895 $l=0.0150 $w=0.0120 $lvl=10
R1_55 A:35 A:36 2.19298 $l=0.0050 $w=0.0120 $lvl=10
R1_56 A:37 A:96 2.19298 $l=0.0050 $w=0.0120 $lvl=10
R1_57 A:38 A:80 6.57895 $l=0.0150 $w=0.0120 $lvl=10
R1_58 A:39 A:80 6.57895 $l=0.0150 $w=0.0120 $lvl=10
R1_59 A:40 A:41 2.19298 $l=0.0050 $w=0.0120 $lvl=10
R1_60 A:42 A:97 2.19298 $l=0.0050 $w=0.0120 $lvl=10
R1_61 A:43 A:82 6.57895 $l=0.0150 $w=0.0120 $lvl=10
R1_62 A:44 A:82 6.57895 $l=0.0150 $w=0.0120 $lvl=10
R1_63 A:45 A:46 2.19298 $l=0.0050 $w=0.0120 $lvl=10
R1_64 A:47 A:98 2.19298 $l=0.0050 $w=0.0120 $lvl=10
R1_65 A:48 A:84 6.57895 $l=0.0150 $w=0.0120 $lvl=10
R1_66 A:49 A:84 6.57895 $l=0.0150 $w=0.0120 $lvl=10
R1_67 A:50 A:51 2.19298 $l=0.0050 $w=0.0120 $lvl=10
R1_68 A:52 A:99 2.19298 $l=0.0050 $w=0.0120 $lvl=10
R1_69 A:53 A:86 6.57895 $l=0.0150 $w=0.0120 $lvl=10
R1_70 A:54 A:86 6.57895 $l=0.0150 $w=0.0120 $lvl=10
R1_71 A:55 A:56 2.19298 $l=0.0050 $w=0.0120 $lvl=10
R1_72 A:57 A:100 2.19298 $l=0.0050 $w=0.0120 $lvl=10
R1_73 A:58 A:88 6.57895 $l=0.0150 $w=0.0120 $lvl=10
R1_74 A:59 A:88 6.57895 $l=0.0150 $w=0.0120 $lvl=10
R1_75 A:60 A:61 2.19298 $l=0.0050 $w=0.0120 $lvl=10
R1_76 A:62 A:101 2.19298 $l=0.0050 $w=0.0120 $lvl=10
R1_77 A:63 A:72 6.57895 $l=0.0150 $w=0.0120 $lvl=10
R1_78 A:64 A:72 6.57895 $l=0.0150 $w=0.0120 $lvl=10
R1_79 A:65 A:66 2.19298 $l=0.0050 $w=0.0120 $lvl=10
R1_80 A:67 A:102 2.19298 $l=0.0050 $w=0.0120 $lvl=10
R1_81 A:68 A:103 6.57895 $l=0.0150 $w=0.0120 $lvl=10
R1_82 A:69 A:103 6.57895 $l=0.0150 $w=0.0120 $lvl=10
R1_83 A:70 A:71 2.19298 $l=0.0050 $w=0.0120 $lvl=10
R1_84 A:72 A:90 27.7339 $l=0.0210 $w=0.0120 $lvl=14
R1_85 A:73 A:74 63.5281 $a=0.00014400 $lvl=30
R1_86 A:73 A:75 14.5833 $l=0.0420 $w=0.0120 $lvl=9
R1_87 A:75 A:76 63.5281 $a=0.00014400 $lvl=30
R1_88 A:75 A:77 14.5833 $l=0.0420 $w=0.0120 $lvl=9
R1_89 A:77 A:78 63.5281 $a=0.00014400 $lvl=30
R1_90 A:77 A:79 14.5833 $l=0.0420 $w=0.0120 $lvl=9
R1_91 A:79 A:80 63.5281 $a=0.00014400 $lvl=30
R1_92 A:79 A:81 14.5833 $l=0.0420 $w=0.0120 $lvl=9
R1_93 A:81 A:82 63.5281 $a=0.00014400 $lvl=30
R1_94 A:81 A:83 14.5833 $l=0.0420 $w=0.0120 $lvl=9
R1_95 A:83 A:84 63.5281 $a=0.00014400 $lvl=30
R1_96 A:83 A:85 14.5833 $l=0.0420 $w=0.0120 $lvl=9
R1_97 A:85 A:86 63.5281 $a=0.00014400 $lvl=30
R1_98 A:85 A:87 14.5833 $l=0.0420 $w=0.0120 $lvl=9
R1_99 A:87 A:88 63.5281 $a=0.00014400 $lvl=30
R1_100 A:87 A:89 21.875 $l=0.0630 $w=0.0120 $lvl=9
R1_101 A:89 A:90 63.5281 $a=0.00014400 $lvl=30
R1_102 A:89 A:91 2.08333 $l=0.0060 $w=0.0120 $lvl=9
R1_103 A:90 A:103 27.7339 $l=0.0210 $w=0.0120 $lvl=14

*|NET VSS 0.000234314PF
*|P (VSS B 0 0.2100 0.0000) // $llx=0.2090 $lly=-0.0010 $urx=0.2110 $ury=0.0010 $lvl=33
*|I (MM21:SRC MM21 SRC B 0 0.8460 0.0300) // $llx=0.8460 $lly=0.0300 $urx=0.8460 $ury=0.0300 $lvl=16
*|I (MM3:SRC MM3 SRC B 0 0.4560 0.0300) // $llx=0.4560 $lly=0.0300 $urx=0.4560 $ury=0.0300 $lvl=16
*|I (MM39:SRC MM39 SRC B 0 0.4260 0.0300) // $llx=0.4260 $lly=0.0300 $urx=0.4260 $ury=0.0300 $lvl=16
*|I (MM37:SRC MM37 SRC B 0 0.3720 0.0300) // $llx=0.3720 $lly=0.0300 $urx=0.3720 $ury=0.0300 $lvl=16
*|I (MM34:SRC MM34 SRC B 0 0.3420 0.0300) // $llx=0.3420 $lly=0.0300 $urx=0.3420 $ury=0.0300 $lvl=16
*|I (MM32:SRC MM32 SRC B 0 0.2880 0.0300) // $llx=0.2880 $lly=0.0300 $urx=0.2880 $ury=0.0300 $lvl=16
*|I (MM31:SRC MM31 SRC B 0 0.2580 0.0300) // $llx=0.2580 $lly=0.0300 $urx=0.2580 $ury=0.0300 $lvl=16
*|I (MM28:SRC MM28 SRC B 0 0.2040 0.0300) // $llx=0.2040 $lly=0.0300 $urx=0.2040 $ury=0.0300 $lvl=16
*|I (MM27:SRC MM27 SRC B 0 0.1740 0.0300) // $llx=0.1740 $lly=0.0300 $urx=0.1740 $ury=0.0300 $lvl=16
*|I (MM24:SRC MM24 SRC B 0 0.1200 0.0300) // $llx=0.1200 $lly=0.0300 $urx=0.1200 $ury=0.0300 $lvl=16
*|I (MM23:SRC MM23 SRC B 0 0.0900 0.0300) // $llx=0.0900 $lly=0.0300 $urx=0.0900 $ury=0.0300 $lvl=16
*|I (MM19:SRC MM19 SRC B 0 0.7920 0.0300) // $llx=0.7920 $lly=0.0300 $urx=0.7920 $ury=0.0300 $lvl=16
*|I (MM0:SRC MM0 SRC B 0 0.0360 0.0300) // $llx=0.0360 $lly=0.0300 $urx=0.0360 $ury=0.0300 $lvl=16
*|I (MM17:SRC MM17 SRC B 0 0.7620 0.0300) // $llx=0.7620 $lly=0.0300 $urx=0.7620 $ury=0.0300 $lvl=16
*|I (MM15:SRC MM15 SRC B 0 0.7080 0.0300) // $llx=0.7080 $lly=0.0300 $urx=0.7080 $ury=0.0300 $lvl=16
*|I (MM12:SRC MM12 SRC B 0 0.6780 0.0300) // $llx=0.6780 $lly=0.0300 $urx=0.6780 $ury=0.0300 $lvl=16
*|I (MM10:SRC MM10 SRC B 0 0.6240 0.0300) // $llx=0.6240 $lly=0.0300 $urx=0.6240 $ury=0.0300 $lvl=16
*|I (MM9:SRC MM9 SRC B 0 0.5940 0.0300) // $llx=0.5940 $lly=0.0300 $urx=0.5940 $ury=0.0300 $lvl=16
*|I (MM7:SRC MM7 SRC B 0 0.5400 0.0300) // $llx=0.5400 $lly=0.0300 $urx=0.5400 $ury=0.0300 $lvl=16
*|I (MM4:BULK MM4 BULK B 0 0.5040 0.0300) // $llx=0.5040 $lly=0.0300 $urx=0.5040 $ury=0.0300 $lvl=20
*|I (MM4:SRC MM4 SRC B 0 0.5100 0.0300) // $llx=0.5100 $lly=0.0300 $urx=0.5100 $ury=0.0300 $lvl=16
*|I (MM4:BULK MM21 BULK B 0 0.8400 0.0300) // $llx=0.8400 $lly=0.0300 $urx=0.8400 $ury=0.0300 $lvl=20
*|I (MM4:BULK MM3 BULK B 0 0.4620 0.0300) // $llx=0.4620 $lly=0.0300 $urx=0.4620 $ury=0.0300 $lvl=20
*|I (MM4:BULK MM39 BULK B 0 0.4200 0.0300) // $llx=0.4200 $lly=0.0300 $urx=0.4200 $ury=0.0300 $lvl=20
*|I (MM4:BULK MM37 BULK B 0 0.3780 0.0300) // $llx=0.3780 $lly=0.0300 $urx=0.3780 $ury=0.0300 $lvl=20
*|I (MM4:BULK MM34 BULK B 0 0.3360 0.0300) // $llx=0.3360 $lly=0.0300 $urx=0.3360 $ury=0.0300 $lvl=20
*|I (MM4:BULK MM32 BULK B 0 0.2940 0.0300) // $llx=0.2940 $lly=0.0300 $urx=0.2940 $ury=0.0300 $lvl=20
*|I (MM4:BULK MM31 BULK B 0 0.2520 0.0300) // $llx=0.2520 $lly=0.0300 $urx=0.2520 $ury=0.0300 $lvl=20
*|I (MM4:BULK MM28 BULK B 0 0.2100 0.0300) // $llx=0.2100 $lly=0.0300 $urx=0.2100 $ury=0.0300 $lvl=20
*|I (MM4:BULK MM27 BULK B 0 0.1680 0.0300) // $llx=0.1680 $lly=0.0300 $urx=0.1680 $ury=0.0300 $lvl=20
*|I (MM4:BULK MM24 BULK B 0 0.1260 0.0300) // $llx=0.1260 $lly=0.0300 $urx=0.1260 $ury=0.0300 $lvl=20
*|I (MM4:BULK MM23 BULK B 0 0.0840 0.0300) // $llx=0.0840 $lly=0.0300 $urx=0.0840 $ury=0.0300 $lvl=20
*|I (MM4:BULK MM19 BULK B 0 0.7980 0.0300) // $llx=0.7980 $lly=0.0300 $urx=0.7980 $ury=0.0300 $lvl=20
*|I (MM4:BULK MM0 BULK B 0 0.0420 0.0300) // $llx=0.0420 $lly=0.0300 $urx=0.0420 $ury=0.0300 $lvl=20
*|I (MM4:BULK MM17 BULK B 0 0.7560 0.0300) // $llx=0.7560 $lly=0.0300 $urx=0.7560 $ury=0.0300 $lvl=20
*|I (MM4:BULK MM15 BULK B 0 0.7140 0.0300) // $llx=0.7140 $lly=0.0300 $urx=0.7140 $ury=0.0300 $lvl=20
*|I (MM4:BULK MM12 BULK B 0 0.6720 0.0300) // $llx=0.6720 $lly=0.0300 $urx=0.6720 $ury=0.0300 $lvl=20
*|I (MM4:BULK MM10 BULK B 0 0.6300 0.0300) // $llx=0.6300 $lly=0.0300 $urx=0.6300 $ury=0.0300 $lvl=20
*|I (MM4:BULK MM9 BULK B 0 0.5880 0.0300) // $llx=0.5880 $lly=0.0300 $urx=0.5880 $ury=0.0300 $lvl=20
*|I (MM4:BULK MM7 BULK B 0 0.5460 0.0300) // $llx=0.5460 $lly=0.0300 $urx=0.5460 $ury=0.0300 $lvl=20
*|S (VSS:23 0.0210 0.0150) // $llx=0.0110 $lly=0.0150 $urx=0.0310 $ury=0.0150 $lvl=15
*|S (VSS:24 0.1050 0.0150) // $llx=0.0950 $lly=0.0150 $urx=0.1150 $ury=0.0150 $lvl=15
*|S (VSS:25 0.1890 0.0150) // $llx=0.1790 $lly=0.0150 $urx=0.1990 $ury=0.0150 $lvl=15
*|S (VSS:26 0.2730 0.0150) // $llx=0.2630 $lly=0.0150 $urx=0.2830 $ury=0.0150 $lvl=15
*|S (VSS:27 0.3570 0.0150) // $llx=0.3470 $lly=0.0150 $urx=0.3670 $ury=0.0150 $lvl=15
*|S (VSS:28 0.4410 0.0150) // $llx=0.4310 $lly=0.0150 $urx=0.4510 $ury=0.0150 $lvl=15
*|S (VSS:29 0.5250 0.0150) // $llx=0.5150 $lly=0.0150 $urx=0.5350 $ury=0.0150 $lvl=15
*|S (VSS:30 0.6090 0.0150) // $llx=0.5990 $lly=0.0150 $urx=0.6190 $ury=0.0150 $lvl=15
*|S (VSS:31 0.6930 0.0150) // $llx=0.6830 $lly=0.0150 $urx=0.7030 $ury=0.0150 $lvl=15
*|S (VSS:32 0.7770 0.0150) // $llx=0.7670 $lly=0.0150 $urx=0.7870 $ury=0.0150 $lvl=15
*|S (VSS:33 0.8610 0.0150) // $llx=0.8510 $lly=0.0150 $urx=0.8710 $ury=0.0150 $lvl=15
*|S (VSS:34 0.0210 0.0000) // $llx=0.0150 $lly=-0.0060 $urx=0.0270 $ury=0.0060 $lvl=9
*|S (VSS:35 0.0210 0.0000) // $llx=0.0110 $lly=-0.0060 $urx=0.0310 $ury=0.0060 $lvl=13
*|S (VSS:36 0.0630 0.0000) // $llx=0.0570 $lly=-0.0060 $urx=0.0690 $ury=0.0060 $lvl=9
*|S (VSS:37 0.0630 0.0000) // $llx=0.0570 $lly=-0.0060 $urx=0.0690 $ury=0.0060 $lvl=14
*|S (VSS:38 0.1050 0.0000) // $llx=0.0990 $lly=-0.0060 $urx=0.1110 $ury=0.0060 $lvl=9
*|S (VSS:39 0.1050 0.0000) // $llx=0.0950 $lly=-0.0060 $urx=0.1150 $ury=0.0060 $lvl=13
*|S (VSS:40 0.1470 0.0000) // $llx=0.1410 $lly=-0.0060 $urx=0.1530 $ury=0.0060 $lvl=9
*|S (VSS:41 0.1470 0.0000) // $llx=0.1410 $lly=-0.0060 $urx=0.1530 $ury=0.0060 $lvl=14
*|S (VSS:42 0.1890 0.0000) // $llx=0.1830 $lly=-0.0060 $urx=0.1950 $ury=0.0060 $lvl=9
*|S (VSS:43 0.1890 0.0000) // $llx=0.1790 $lly=-0.0060 $urx=0.1990 $ury=0.0060 $lvl=13
*|S (VSS:44 0.2310 0.0000) // $llx=0.2250 $lly=-0.0060 $urx=0.2370 $ury=0.0060 $lvl=9
*|S (VSS:45 0.2310 0.0000) // $llx=0.2250 $lly=-0.0060 $urx=0.2370 $ury=0.0060 $lvl=14
*|S (VSS:46 0.2730 0.0000) // $llx=0.2670 $lly=-0.0060 $urx=0.2790 $ury=0.0060 $lvl=9
*|S (VSS:47 0.2730 0.0000) // $llx=0.2630 $lly=-0.0060 $urx=0.2830 $ury=0.0060 $lvl=13
*|S (VSS:48 0.3150 0.0000) // $llx=0.3090 $lly=-0.0060 $urx=0.3210 $ury=0.0060 $lvl=9
*|S (VSS:49 0.3150 0.0000) // $llx=0.3090 $lly=-0.0060 $urx=0.3210 $ury=0.0060 $lvl=14
*|S (VSS:50 0.3570 0.0000) // $llx=0.3510 $lly=-0.0060 $urx=0.3630 $ury=0.0060 $lvl=9
*|S (VSS:51 0.3570 0.0000) // $llx=0.3470 $lly=-0.0060 $urx=0.3670 $ury=0.0060 $lvl=13
*|S (VSS:52 0.3990 0.0000) // $llx=0.3930 $lly=-0.0060 $urx=0.4050 $ury=0.0060 $lvl=9
*|S (VSS:53 0.3990 0.0000) // $llx=0.3930 $lly=-0.0060 $urx=0.4050 $ury=0.0060 $lvl=14
*|S (VSS:54 0.4410 0.0000) // $llx=0.4350 $lly=-0.0060 $urx=0.4470 $ury=0.0060 $lvl=9
*|S (VSS:55 0.4410 0.0000) // $llx=0.4310 $lly=-0.0060 $urx=0.4510 $ury=0.0060 $lvl=13
*|S (VSS:56 0.4830 0.0000) // $llx=0.4770 $lly=-0.0060 $urx=0.4890 $ury=0.0060 $lvl=9
*|S (VSS:57 0.4830 0.0000) // $llx=0.4770 $lly=-0.0060 $urx=0.4890 $ury=0.0060 $lvl=14
*|S (VSS:58 0.5250 0.0000) // $llx=0.5190 $lly=-0.0060 $urx=0.5310 $ury=0.0060 $lvl=9
*|S (VSS:59 0.5250 0.0000) // $llx=0.5150 $lly=-0.0060 $urx=0.5350 $ury=0.0060 $lvl=13
*|S (VSS:60 0.5670 0.0000) // $llx=0.5610 $lly=-0.0060 $urx=0.5730 $ury=0.0060 $lvl=9
*|S (VSS:61 0.5670 0.0000) // $llx=0.5610 $lly=-0.0060 $urx=0.5730 $ury=0.0060 $lvl=14
*|S (VSS:62 0.6090 0.0000) // $llx=0.6030 $lly=-0.0060 $urx=0.6150 $ury=0.0060 $lvl=9
*|S (VSS:63 0.6090 0.0000) // $llx=0.5990 $lly=-0.0060 $urx=0.6190 $ury=0.0060 $lvl=13
*|S (VSS:64 0.6510 0.0000) // $llx=0.6450 $lly=-0.0060 $urx=0.6570 $ury=0.0060 $lvl=9
*|S (VSS:65 0.6510 0.0000) // $llx=0.6450 $lly=-0.0060 $urx=0.6570 $ury=0.0060 $lvl=14
*|S (VSS:66 0.6930 0.0000) // $llx=0.6870 $lly=-0.0060 $urx=0.6990 $ury=0.0060 $lvl=9
*|S (VSS:67 0.6930 0.0000) // $llx=0.6830 $lly=-0.0060 $urx=0.7030 $ury=0.0060 $lvl=13
*|S (VSS:68 0.7350 0.0000) // $llx=0.7290 $lly=-0.0060 $urx=0.7410 $ury=0.0060 $lvl=9
*|S (VSS:69 0.7350 0.0000) // $llx=0.7290 $lly=-0.0060 $urx=0.7410 $ury=0.0060 $lvl=14
*|S (VSS:70 0.7770 0.0000) // $llx=0.7710 $lly=-0.0060 $urx=0.7830 $ury=0.0060 $lvl=9
*|S (VSS:71 0.7770 0.0000) // $llx=0.7670 $lly=-0.0060 $urx=0.7870 $ury=0.0060 $lvl=13
*|S (VSS:72 0.8190 0.0000) // $llx=0.8130 $lly=-0.0060 $urx=0.8250 $ury=0.0060 $lvl=9
*|S (VSS:73 0.8190 0.0000) // $llx=0.8130 $lly=-0.0060 $urx=0.8250 $ury=0.0060 $lvl=14
*|S (VSS:74 0.8610 0.0000) // $llx=0.8550 $lly=-0.0060 $urx=0.8670 $ury=0.0060 $lvl=9
*|S (VSS:75 0.8610 0.0000) // $llx=0.8510 $lly=-0.0060 $urx=0.8710 $ury=0.0060 $lvl=13
*|S (VSS:76 0.0210 0.0450) // $llx=0.0110 $lly=0.0450 $urx=0.0310 $ury=0.0450 $lvl=15
*|S (VSS:77 0.1050 0.0450) // $llx=0.0950 $lly=0.0450 $urx=0.1150 $ury=0.0450 $lvl=15
*|S (VSS:78 0.1890 0.0450) // $llx=0.1790 $lly=0.0450 $urx=0.1990 $ury=0.0450 $lvl=15
*|S (VSS:79 0.2730 0.0450) // $llx=0.2630 $lly=0.0450 $urx=0.2830 $ury=0.0450 $lvl=15
*|S (VSS:80 0.3570 0.0450) // $llx=0.3470 $lly=0.0450 $urx=0.3670 $ury=0.0450 $lvl=15
*|S (VSS:81 0.4410 0.0450) // $llx=0.4310 $lly=0.0450 $urx=0.4510 $ury=0.0450 $lvl=15
*|S (VSS:82 0.5250 0.0450) // $llx=0.5150 $lly=0.0450 $urx=0.5350 $ury=0.0450 $lvl=15
*|S (VSS:83 0.6090 0.0450) // $llx=0.5990 $lly=0.0450 $urx=0.6190 $ury=0.0450 $lvl=15
*|S (VSS:84 0.6930 0.0450) // $llx=0.6830 $lly=0.0450 $urx=0.7030 $ury=0.0450 $lvl=15
*|S (VSS:85 0.7770 0.0450) // $llx=0.7670 $lly=0.0450 $urx=0.7870 $ury=0.0450 $lvl=15
*|S (VSS:86 0.8610 0.0450) // $llx=0.8510 $lly=0.0450 $urx=0.8710 $ury=0.0450 $lvl=15
*|S (VSS:87 -0.0090 0.0000) // $llx=-0.0090 $lly=-0.0060 $urx=-0.0090 $ury=0.0060 $lvl=9
*|S (VSS:88 0.8910 0.0000) // $llx=0.8910 $lly=-0.0060 $urx=0.8910 $ury=0.0060 $lvl=9
*|S (VSS:89 -0.0090 0.0000) // $llx=-0.0090 $lly=-0.0060 $urx=-0.0090 $ury=0.0060 $lvl=14
*|S (VSS:90 0.8910 0.0000) // $llx=0.8910 $lly=-0.0060 $urx=0.8910 $ury=0.0060 $lvl=14
*|S (VSS:91 0.0210 0.0300) // $llx=0.0110 $lly=0.0300 $urx=0.0310 $ury=0.0300 $lvl=15
*|S (VSS:92 0.1050 0.0300) // $llx=0.0950 $lly=0.0300 $urx=0.1150 $ury=0.0300 $lvl=15
*|S (VSS:93 0.1890 0.0300) // $llx=0.1790 $lly=0.0300 $urx=0.1990 $ury=0.0300 $lvl=15
*|S (VSS:94 0.2730 0.0300) // $llx=0.2630 $lly=0.0300 $urx=0.2830 $ury=0.0300 $lvl=15
*|S (VSS:95 0.3570 0.0300) // $llx=0.3470 $lly=0.0300 $urx=0.3670 $ury=0.0300 $lvl=15
*|S (VSS:96 0.4410 0.0300) // $llx=0.4310 $lly=0.0300 $urx=0.4510 $ury=0.0300 $lvl=15
*|S (VSS:97 0.5250 0.0300) // $llx=0.5150 $lly=0.0300 $urx=0.5350 $ury=0.0300 $lvl=15
*|S (VSS:98 0.6090 0.0300) // $llx=0.5990 $lly=0.0300 $urx=0.6190 $ury=0.0300 $lvl=15
*|S (VSS:99 0.6930 0.0300) // $llx=0.6830 $lly=0.0300 $urx=0.7030 $ury=0.0300 $lvl=15
*|S (VSS:100 0.7770 0.0300) // $llx=0.7670 $lly=0.0300 $urx=0.7870 $ury=0.0300 $lvl=15
*|S (VSS:101 0.8610 0.0300) // $llx=0.8510 $lly=0.0300 $urx=0.8710 $ury=0.0300 $lvl=15
C2_1 MM4:BULK A 4.46108e-19
C2_2 VSS:23 A 2.47645e-19
C2_3 VSS:35 A 3.44814e-19
C2_4 VSS:75 A 1.00765e-19
C2_5 VSS:76 A 4.3527e-20
C2_6 VSS:87 A 9.92946e-19
C2_7 VSS:88 A 9.92946e-19
C2_8 VSS:75 A:24 4.41316e-20
C2_9 VSS:75 A:29 4.30793e-20
C2_10 VSS:75 A:34 4.30793e-20
C2_11 VSS:75 A:39 4.30793e-20
C2_12 VSS:75 A:44 4.30793e-20
C2_13 VSS:75 A:49 4.30793e-20
C2_14 VSS:75 A:54 4.30793e-20
C2_15 VSS:75 A:59 4.30793e-20
C2_16 VSS:75 A:64 4.30793e-20
C2_17 VSS:75 A:69 4.30793e-20
C2_18 VSS:75 A:72 7.57903e-21
C2_19 VSS:75 A:74 3.78951e-21
C2_20 VSS:75 A:76 3.78951e-21
C2_21 VSS:75 A:78 3.78951e-21
C2_22 VSS:75 A:80 3.78951e-21
C2_23 VSS:75 A:82 3.78951e-21
C2_24 VSS:75 A:84 3.78951e-21
C2_25 VSS:75 A:86 3.78951e-21
C2_26 VSS:75 A:88 3.78951e-21
C2_27 MM4:BULK A:91 1.49791e-18
C2_28 VSS:75 A:91 2.22565e-20
C2_29 VSS:87 A:91 1.37213e-18
C2_30 VSS:88 A:91 1.37213e-18
C2_31 MM4:BULK A:92 3.03349e-19
Cg2_32 MM4:BULK 0 2.66033e-17
Cg2_33 VSS:23 0 2.656e-19
Cg2_34 VSS:24 0 2.73586e-19
Cg2_35 VSS:25 0 2.73586e-19
Cg2_36 VSS:26 0 2.73586e-19
Cg2_37 VSS:27 0 2.73586e-19
Cg2_38 VSS:28 0 2.656e-19
Cg2_39 VSS:29 0 2.73586e-19
Cg2_40 VSS:30 0 2.73586e-19
Cg2_41 VSS:31 0 2.73586e-19
Cg2_42 VSS:32 0 2.73586e-19
Cg2_43 VSS:33 0 1.78742e-19
Cg2_44 VSS:35 0 6.02945e-19
Cg2_45 VSS:39 0 3.21095e-19
Cg2_46 VSS:43 0 3.19586e-19
Cg2_47 VSS:47 0 3.18077e-19
Cg2_48 VSS:51 0 3.16568e-19
Cg2_49 VSS:55 0 3.17108e-19