*
*|DSPF 1.3
*|DESIGN DHLx1
*|DATE "Tue Oct 15 21:10:45 2024"
*|VENDOR "Synopsys"
*|PROGRAM "StarRC"
*|VERSION "V-2023.12-SP5"
*|DIVIDER .
*|DELIMITER :
**FORMAT SPF
*

** COMMENTS

** OPERATING_TEMPERATURE 25
** GLOBAL_TEMPERATURE 25
** 
** TCAD_GRD_FILE /home/gtcad/ctsai314/ITF_Modification/0_reference/3nm_FF_noBPR.nxtgrd
**   TCAD_TIME_STAMP Tue Sep 3 21:56:12 2024
**   TCADGRD_VERSION 89

.SUBCKT DHLx1 CK D Q VDD VSS

*|GROUND_NET 0

*LAYER_MAP

*0 SUBSTRATE
*1 m9    ITF=M9
*2 m8    ITF=M8
*3 m7    ITF=M7
*4 m6    ITF=M6
*5 m5    ITF=M5
*6 m4    ITF=M4
*7 m3    ITF=M3
*8 m2    ITF=M2
*9 m1    ITF=M1
*10 fpoly    ITF=Gate
*11 ngate    ITF=Gate
*12 pgate    ITF=Gate
*13 lisd    ITF=LISD
*14 lig    ITF=LIG
*15 sdt    ITF=SDT
*16 nsd    ITF=Active
*17 psd    ITF=Active
*18 pselect    ITF=Active
*19 well    ITF=Active
*20 sub    ITF=Active
*21 nselect    ITF=Active
*22 v8    ITF=V8
*23 v7    ITF=V7
*24 v6    ITF=V6
*25 v5    ITF=V5
*26 v4    ITF=V4
*27 v3    ITF=V3
*28 v2    ITF=V2
*29 v1    ITF=V1
*30 v0lig    ITF=V0LIG
*31 v0lisd    ITF=V0LISD
*32 well_pin    ITF=Active
*33 M1_pin    ITF=M1
*34 M2_pin    ITF=M2
*35 M3_pin    ITF=M3
*36 M4_pin    ITF=M4
*37 M5_pin    ITF=M5
*38 M6_pin    ITF=M6
*39 M7_pin    ITF=M7
*40 M8_pin    ITF=M8
*41 M9_pin    ITF=M9

*|NET CK 2.22696e-05PF
*|P (CK B 0 0.0490 0.0600) // $llx=0.0430 $lly=0.0540 $urx=0.0550 $ury=0.0660 $lvl=33
*|I (MM2:GATE MM2 GATE I 3.6e-19 0.0420 0.0900) // $llx=0.0420 $lly=0.0900 $urx=0.0420 $ury=0.0900 $lvl=12
*|I (MM0:GATE MM0 GATE I 3.6e-19 0.0420 0.0300) // $llx=0.0420 $lly=0.0300 $urx=0.0420 $ury=0.0300 $lvl=11
*|S (CK:4 0.0420 0.0150) // $llx=0.0360 $lly=0.0150 $urx=0.0480 $ury=0.0150 $lvl=10
*|S (CK:5 0.0420 0.0450) // $llx=0.0360 $lly=0.0450 $urx=0.0480 $ury=0.0450 $lvl=11
*|S (CK:6 0.0420 0.0750) // $llx=0.0360 $lly=0.0750 $urx=0.0480 $ury=0.0750 $lvl=10
*|S (CK:7 0.0420 0.1050) // $llx=0.0360 $lly=0.1050 $urx=0.0480 $ury=0.1050 $lvl=12
*|S (CK:8 0.0420 0.1100) // $llx=0.0360 $lly=0.1100 $urx=0.0480 $ury=0.1100 $lvl=10
*|S (CK:9 0.0420 0.0600) // $llx=0.0360 $lly=0.0540 $urx=0.0480 $ury=0.0660 $lvl=10
*|S (CK:10 0.0490 0.0600) // $llx=0.0430 $lly=0.0540 $urx=0.0550 $ury=0.0660 $lvl=14
*|S (CK:11 0.0490 0.0180) // $llx=0.0430 $lly=0.0180 $urx=0.0550 $ury=0.0180 $lvl=9
*|S (CK:12 0.0420 0.0100) // $llx=0.0360 $lly=0.0100 $urx=0.0480 $ury=0.0100 $lvl=10
*|S (CK:13 0.0550 0.0600) // $llx=0.0550 $lly=0.0540 $urx=0.0550 $ury=0.0660 $lvl=14
*|S (CK:14 0.0490 0.1020) // $llx=0.0430 $lly=0.1020 $urx=0.0550 $ury=0.1020 $lvl=9
Cg1_1 CK:4 0 6.11935e-20
Cg1_2 CK:5 0 2.43715e-19
Cg1_3 CK:6 0 2.69338e-19
Cg1_4 CK:7 0 3.69334e-19
Cg1_5 CK:8 0 1.74274e-19
Cg1_6 CK:9 0 1.63528e-19
Cg1_7 CK:11 0 1.8542e-18
R1_1 CK CK:11 14.5833 $l=0.0420 $w=0.0120 $lvl=9
R1_2 CK CK:14 14.5833 $l=0.0420 $w=0.0120 $lvl=9
R1_3 CK CK:10 63.5281 $a=0.00014400 $lvl=30
R1_4 MM2:GATE CK:7 6.57895 $l=0.0150 $w=0.0120 $lvl=12
R1_5 MM2:GATE CK:6 6.57895 $l=0.0150 $w=0.0120 $lvl=12
R1_6 MM0:GATE CK:5 6.57895 $l=0.0150 $w=0.0120 $lvl=11
R1_7 MM0:GATE CK:4 6.57895 $l=0.0150 $w=0.0120 $lvl=11
R1_8 CK:4 CK:12 2.19298 $l=0.0050 $w=0.0120 $lvl=10
R1_9 CK:5 CK:9 6.57895 $l=0.0150 $w=0.0120 $lvl=10
R1_10 CK:6 CK:9 6.57895 $l=0.0150 $w=0.0120 $lvl=10
R1_11 CK:7 CK:8 2.19298 $l=0.0050 $w=0.0120 $lvl=10
R1_12 CK:9 CK:10 9.24462 $l=0.0070 $w=0.0120 $lvl=14
R1_13 CK:10 CK:13 7.92396 $l=0.0060 $w=0.0120 $lvl=14

*|NET D 2.08367e-05PF
*|P (D B 0 0.1470 0.0600) // $llx=0.1410 $lly=0.0540 $urx=0.1530 $ury=0.0660 $lvl=33
*|I (MM4:GATE MM4 GATE I 3.6e-19 0.1680 0.0900) // $llx=0.1680 $lly=0.0900 $urx=0.1680 $ury=0.0900 $lvl=12
*|I (MM7:GATE MM7 GATE I 3.6e-19 0.1680 0.0300) // $llx=0.1680 $lly=0.0300 $urx=0.1680 $ury=0.0300 $lvl=11
*|S (D:4 0.1680 0.0150) // $llx=0.1620 $lly=0.0150 $urx=0.1740 $ury=0.0150 $lvl=10
*|S (D:5 0.1680 0.0450) // $llx=0.1620 $lly=0.0450 $urx=0.1740 $ury=0.0450 $lvl=11
*|S (D:6 0.1680 0.0750) // $llx=0.1620 $lly=0.0750 $urx=0.1740 $ury=0.0750 $lvl=10
*|S (D:7 0.1680 0.1050) // $llx=0.1620 $lly=0.1050 $urx=0.1740 $ury=0.1050 $lvl=12
*|S (D:8 0.1680 0.1100) // $llx=0.1620 $lly=0.1100 $urx=0.1740 $ury=0.1100 $lvl=10
*|S (D:9 0.1680 0.0600) // $llx=0.1620 $lly=0.0540 $urx=0.1740 $ury=0.0660 $lvl=10
*|S (D:10 0.1470 0.0600) // $llx=0.1410 $lly=0.0540 $urx=0.1530 $ury=0.0660 $lvl=14
*|S (D:11 0.1470 0.0180) // $llx=0.1410 $lly=0.0180 $urx=0.1530 $ury=0.0180 $lvl=9
*|S (D:12 0.1680 0.0100) // $llx=0.1620 $lly=0.0100 $urx=0.1740 $ury=0.0100 $lvl=10
*|S (D:13 0.1410 0.0600) // $llx=0.1410 $lly=0.0540 $urx=0.1410 $ury=0.0660 $lvl=14
*|S (D:14 0.1470 0.1020) // $llx=0.1410 $lly=0.1020 $urx=0.1530 $ury=0.1020 $lvl=9
Cg2_1 D:4 0 6.05746e-20
Cg2_2 D:5 0 2.43715e-19
Cg2_3 D:6 0 2.72545e-19
Cg2_4 D:7 0 3.79686e-19
Cg2_5 D:8 0 1.76591e-19
Cg2_6 D:9 0 1.83247e-19
Cg2_7 D:11 0 2.25755e-18
R2_1 D D:11 14.5833 $l=0.0420 $w=0.0120 $lvl=9
R2_2 D D:14 14.5833 $l=0.0420 $w=0.0120 $lvl=9
R2_3 D D:10 63.5281 $a=0.00014400 $lvl=30
R2_4 MM4:GATE D:7 6.57895 $l=0.0150 $w=0.0120 $lvl=12
R2_5 MM4:GATE D:6 6.57895 $l=0.0150 $w=0.0120 $lvl=12
R2_6 MM7:GATE D:5 6.57895 $l=0.0150 $w=0.0120 $lvl=11
R2_7 MM7:GATE D:4 6.57895 $l=0.0150 $w=0.0120 $lvl=11
R2_8 D:4 D:12 2.19298 $l=0.0050 $w=0.0120 $lvl=10
R2_9 D:5 D:9 6.57895 $l=0.0150 $w=0.0120 $lvl=10
R2_10 D:6 D:9 6.57895 $l=0.0150 $w=0.0120 $lvl=10
R2_11 D:7 D:8 2.19298 $l=0.0050 $w=0.0120 $lvl=10
R2_12 D:9 D:10 27.7339 $l=0.0210 $w=0.0120 $lvl=14
R2_13 D:10 D:13 7.92396 $l=0.0060 $w=0.0120 $lvl=14

*|NET VSS 0.000110617PF
*|P (VSS B 0 0.3570 0.0000) // $llx=0.3510 $lly=-0.0060 $urx=0.3630 $ury=0.0060 $lvl=33
*|I (MM17:SRC MM17 SRC B 0 0.4560 0.0300) // $llx=0.4560 $lly=0.0300 $urx=0.4560 $ury=0.0300 $lvl=16
*|I (MM11:SRC MM11 SRC B 0 0.3720 0.0225) // $llx=0.3720 $lly=0.0225 $urx=0.3720 $ury=0.0225 $lvl=16
*|I (MM15:SRC MM15 SRC B 0 0.3420 0.0225) // $llx=0.3420 $lly=0.0225 $urx=0.3420 $ury=0.0225 $lvl=16
*|I (MM6:BULK MM6 BULK B 0 0.2520 0.0300) // $llx=0.2520 $lly=0.0300 $urx=0.2520 $ury=0.0300 $lvl=20
*|I (MM7:BULK MM7 BULK B 0 0.1680 0.0300) // $llx=0.1680 $lly=0.0300 $urx=0.1680 $ury=0.0300 $lvl=20
*|I (MM7:SRC MM7 SRC B 0 0.1620 0.0300) // $llx=0.1620 $lly=0.0300 $urx=0.1620 $ury=0.0300 $lvl=16
*|I (MM1:SRC MM1 SRC B 0 0.0780 0.0300) // $llx=0.0780 $lly=0.0300 $urx=0.0780 $ury=0.0300 $lvl=16
*|I (MM0:SRC MM0 SRC B 0 0.0480 0.0300) // $llx=0.0480 $lly=0.0300 $urx=0.0480 $ury=0.0300 $lvl=16
*|I (MM6:BULK MM17 BULK B 0 0.4620 0.0300) // $llx=0.4620 $lly=0.0300 $urx=0.4620 $ury=0.0300 $lvl=20
*|I (MM6:BULK MM11 BULK B 0 0.3780 0.0225) // $llx=0.3780 $lly=0.0225 $urx=0.3780 $ury=0.0225 $lvl=20
*|I (MM6:BULK MM15 BULK B 0 0.3360 0.0225) // $llx=0.3360 $lly=0.0225 $urx=0.3360 $ury=0.0225 $lvl=20
*|I (MM6:BULK MM14 BULK B 0 0.2940 0.0225) // $llx=0.2940 $lly=0.0225 $urx=0.2940 $ury=0.0225 $lvl=20
*|I (MM7:BULK MM1 BULK B 0 0.0840 0.0300) // $llx=0.0840 $lly=0.0300 $urx=0.0840 $ury=0.0300 $lvl=20
*|I (MM7:BULK MM0 BULK B 0 0.0420 0.0300) // $llx=0.0420 $lly=0.0300 $urx=0.0420 $ury=0.0300 $lvl=20
*|S (VSS:10 0.0630 0.0150) // $llx=0.0530 $lly=0.0150 $urx=0.0730 $ury=0.0150 $lvl=15
*|S (VSS:11 0.1470 0.0150) // $llx=0.1370 $lly=0.0150 $urx=0.1570 $ury=0.0150 $lvl=15
*|S (VSS:12 0.4410 0.0150) // $llx=0.4310 $lly=0.0150 $urx=0.4510 $ury=0.0150 $lvl=15
*|S (VSS:13 0.0210 0.0000) // $llx=0.0150 $lly=-0.0060 $urx=0.0270 $ury=0.0060 $lvl=9
*|S (VSS:14 0.0210 0.0000) // $llx=0.0150 $lly=-0.0060 $urx=0.0270 $ury=0.0060 $lvl=14
*|S (VSS:15 0.0630 0.0000) // $llx=0.0570 $lly=-0.0060 $urx=0.0690 $ury=0.0060 $lvl=9
*|S (VSS:16 0.1050 0.0000) // $llx=0.0990 $lly=-0.0060 $urx=0.1110 $ury=0.0060 $lvl=9
*|S (VSS:17 0.1050 0.0000) // $llx=0.0990 $lly=-0.0060 $urx=0.1110 $ury=0.0060 $lvl=14
*|S (VSS:18 0.1470 0.0000) // $llx=0.1410 $lly=-0.0060 $urx=0.1530 $ury=0.0060 $lvl=9
*|S (VSS:19 0.1890 0.0000) // $llx=0.1830 $lly=-0.0060 $urx=0.1950 $ury=0.0060 $lvl=9
*|S (VSS:20 0.1890 0.0000) // $llx=0.1830 $lly=-0.0060 $urx=0.1950 $ury=0.0060 $lvl=14
*|S (VSS:21 0.2310 0.0000) // $llx=0.2250 $lly=-0.0060 $urx=0.2370 $ury=0.0060 $lvl=9
*|S (VSS:22 0.2310 0.0000) // $llx=0.2250 $lly=-0.0060 $urx=0.2370 $ury=0.0060 $lvl=14
*|S (VSS:23 0.2730 0.0000) // $llx=0.2670 $lly=-0.0060 $urx=0.2790 $ury=0.0060 $lvl=9
*|S (VSS:24 0.2730 0.0000) // $llx=0.2670 $lly=-0.0060 $urx=0.2790 $ury=0.0060 $lvl=14
*|S (VSS:25 0.3150 0.0000) // $llx=0.3090 $lly=-0.0060 $urx=0.3210 $ury=0.0060 $lvl=9
*|S (VSS:26 0.3150 0.0000) // $llx=0.3090 $lly=-0.0060 $urx=0.3210 $ury=0.0060 $lvl=14
*|S (VSS:27 0.3990 0.0000) // $llx=0.3930 $lly=-0.0060 $urx=0.4050 $ury=0.0060 $lvl=9
*|S (VSS:28 0.3990 0.0000) // $llx=0.3930 $lly=-0.0060 $urx=0.4050 $ury=0.0060 $lvl=14
*|S (VSS:29 0.4410 0.0000) // $llx=0.4350 $lly=-0.0060 $urx=0.4470 $ury=0.0060 $lvl=9
*|S (VSS:30 0.4410 0.0000) // $llx=0.4310 $lly=-0.0060 $urx=0.4510 $ury=0.0060 $lvl=13
*|S (VSS:31 0.4830 0.0000) // $llx=0.4770 $lly=-0.0060 $urx=0.4890 $ury=0.0060 $lvl=9
*|S (VSS:32 0.4830 0.0000) // $llx=0.4770 $lly=-0.0060 $urx=0.4890 $ury=0.0060 $lvl=14
*|S (VSS:33 0.0630 0.0450) // $llx=0.0530 $lly=0.0450 $urx=0.0730 $ury=0.0450 $lvl=15
*|S (VSS:34 0.1470 0.0450) // $llx=0.1370 $lly=0.0450 $urx=0.1570 $ury=0.0450 $lvl=15
*|S (VSS:35 0.4930 0.0600) // $llx=0.4930 $lly=-0.0100 $urx=0.5040 $ury=0.1300 $lvl=20
*|S (VSS:36 0.4410 0.0450) // $llx=0.4310 $lly=0.0450 $urx=0.4510 $ury=0.0450 $lvl=15
*|S (VSS:37 0.5350 0.0600) // $llx=0.5350 $lly=-0.0100 $urx=0.5350 $ury=0.1300 $lvl=20
*|S (VSS:38 -0.0090 0.0000) // $llx=-0.0090 $lly=-0.0060 $urx=-0.0090 $ury=0.0060 $lvl=9
*|S (VSS:39 0.3570 0.0000) // $llx=0.3470 $lly=-0.0060 $urx=0.3670 $ury=0.0060 $lvl=14
*|S (VSS:40 0.1470 0.0000) // $llx=0.1370 $lly=-0.0060 $urx=0.1570 $ury=0.0060 $lvl=14
*|S (VSS:41 0.0630 0.0000) // $llx=0.0530 $lly=-0.0060 $urx=0.0730 $ury=0.0060 $lvl=14
*|S (VSS:42 -0.0090 0.0000) // $llx=-0.0090 $lly=-0.0060 $urx=-0.0090 $ury=0.0060 $lvl=14
*|S (VSS:43 0.5130 0.0000) // $llx=0.5130 $lly=-0.0060 $urx=0.5130 $ury=0.0060 $lvl=14
*|S (VSS:44 0.0630 0.0300) // $llx=0.0530 $lly=0.0300 $urx=0.0730 $ury=0.0300 $lvl=15
*|S (VSS:45 0.1470 0.0300) // $llx=0.1370 $lly=0.0300 $urx=0.1570 $ury=0.0300 $lvl=15
*|S (VSS:46 0.3570 0.0200) // $llx=0.3470 $lly=0.0150 $urx=0.3670 $ury=0.0250 $lvl=15
*|S (VSS:47 0.4410 0.0300) // $llx=0.4310 $lly=0.0300 $urx=0.4510 $ury=0.0300 $lvl=15
*|S (VSS:48 0.3570 0.0300) // $llx=0.3470 $lly=0.0300 $urx=0.3670 $ury=0.0300 $lvl=16
*|S (VSS:49 0.5130 0.0000) // $llx=0.5130 $lly=-0.0060 $urx=0.5130 $ury=0.0060 $lvl=9
C3_1 VSS:30 CK:6 4.1612e-20
C3_2 MM7:BULK CK:9 7.96256e-21
C3_3 VSS:30 CK:9 3.78951e-21
C3_4 MM7:BULK CK:11 2.48218e-19
C3_5 VSS:10 CK:11 1.82767e-20
C3_6 VSS:30 CK:11 9.72945e-20
C3_7 VSS:33 CK:11 8.02462e-20
C3_8 VSS:38 CK:11 2.08709e-18
C3_9 VSS:41 CK:11 9.82626e-20
C3_10 VSS:30 D:6 4.65718e-20
C3_11 VSS:30 D:9 3.78951e-21
C3_12 MM7:BULK D:11 4.53088e-19
C3_13 VSS:11 D:11 2.38854e-19
C3_14 VSS:30 D:11 1.03062e-19
C3_15 VSS:34 D:11 4.3856e-20
C3_16 VSS:38 D:11 1.98054e-18
C3_17 VSS:40 D:11 3.42638e-19
Cg3_18 MM6:BULK 0 9.56834e-18
Cg3_19 MM7:BULK 0 8.45846e-18
Cg3_20 VSS:10 0 2.81025e-19
Cg3_21 VSS:11 0 2.83402e-19
Cg3_22 VSS:12 0 1.90236e-19
Cg3_23 VSS:30 0 5.49694e-18
Cg3_24 VSS:33 0 6.06973e-19
Cg3_25 VSS:34 0 1.33303e-18
Cg3_26 VSS:35 0 1.05618e-18
Cg3_27 VSS:36 0 5.17687e-19
Cg3_28 VSS:38 0 1.3641e-17
Cg3_29 VSS:39 0 1.10014e-19
Cg3_30 VSS:40 0 3.16035e-19
Cg3_31 VSS:41 0 3.30684e-19
Cg3_32 VSS:46 0 3.94768e-19
R3_1 VSS VSS:25 14.5833 $l=0.0420 $w=0.0120 $lvl=9
R3_2 VSS VSS:27 14.5833 $l=0.0420 $w=0.0120 $lvl=9
R3_3 VSS VSS:39 31.764 $a=0.00028800 $lvl=31
R3_4 MM17:SRC VSS:36 2.0 $l=0.0150 $w=0.0075 $lvl=16
R3_5 MM17:SRC VSS:12 2.0 $l=0.0150 $w=0.0075 $lvl=16
R3_6 MM17:SRC VSS:47 1.0 $l=0.0150 $w=0.0150 $lvl=16
R3_7 MM11:SRC VSS:48 6.0 $l=0.0150 $w=0.0025 $lvl=16
R3_8 MM11:SRC VSS:46 1.2 $l=0.0150 $w=0.0125 $lvl=16
R3_9 MM15:SRC VSS:48 6.0 $l=0.0150 $w=0.0025 $lvl=16
R3_10 MM15:SRC VSS:46 1.2 $l=0.0150 $w=0.0125 $lvl=16
R3_11 MM6:BULK VSS:35 0.356491 $l=0.2410 $w=0.1400 $lvl=20
R3_12 MM6:BULK MM7:BULK 0.660714 $l=0.0840 $w=0.1400 $lvl=20
R3_13 MM7:SRC VSS:34 2.0 $l=0.0150 $w=0.0075 $lvl=16
R3_14 MM7:SRC VSS:11 2.0 $l=0.0150 $w=0.0075 $lvl=16
R3_15 MM7:SRC VSS:45 1.0 $l=0.0150 $w=0.0150 $lvl=16
R3_16 MM1:SRC VSS:33 2.0 $l=0.0150 $w=0.0075 $lvl=16
R3_17 MM1:SRC VSS:10 2.0 $l=0.0150 $w=0.0075 $lvl=16
R3_18 MM1:SRC VSS:44 1.0 $l=0.0150 $w=0.0150 $lvl=16
R3_19 MM0:SRC VSS:33 2.0 $l=0.0150 $w=0.0075 $lvl=16
R3_20 MM0:SRC VSS:10 2.0 $l=0.0150 $w=0.0075 $lvl=16
R3_21 MM0:SRC VSS:44 1.0 $l=0.0150 $w=0.0150 $lvl=16
R3_22 VSS:10 VSS:44 1.87763 $l=0.0150 $w=0.0250 $lvl=16
R3_23 VSS:10 VSS:41 8.89907 $l=0.0150 $w=0.0200 $lvl=13
R3_24 VSS:11 VSS:45 2.73284 $l=0.0150 $w=0.0225 $lvl=16
R3_25 VSS:11 VSS:40 8.89907 $l=0.0150 $w=0.0200 $lvl=13
R3_26 VSS:12 VSS:47 2.73284 $l=0.0150 $w=0.0225 $lvl=16
R3_27 VSS:12 VSS:30 8.89907 $l=0.0150 $w=0.0200 $lvl=13
R3_28 VSS:13 VSS:14 63.5281 $a=0.00014400 $lvl=30
R3_29 VSS:13 VSS:38 10.4167 $l=0.0300 $w=0.0120 $lvl=9
R3_30 VSS:13 VSS:15 14.5833 $l=0.0420 $w=0.0120 $lvl=9
R3_31 VSS:14 VSS:42 39.6198 $l=0.0300 $w=0.0120 $lvl=14
R3_32 VSS:14 VSS:41 50.1851 $l=0.0420 $w=0.0120 $lvl=14
R3_33 VSS:15 VSS:16 14.5833 $l=0.0420 $w=0.0120 $lvl=9
R3_34 VSS:15 VSS:41 31.764 $a=0.00028800 $lvl=31
R3_35 VSS:16 VSS:17 63.5281 $a=0.00014400 $lvl=30
R3_36 VSS:16 VSS:18 14.5833 $l=0.0420 $w=0.0120 $lvl=9
R3_37 VSS:17 VSS:41 50.1851 $l=0.0420 $w=0.0120 $lvl=14
R3_38 VSS:17 VSS:40 50.1851 $l=0.0420 $w=0.0120 $lvl=14
R3_39 VSS:18 VSS:19 14.5833 $l=0.0420 $w=0.0120 $lvl=9
R3_40 VSS:18 VSS:40 31.764 $a=0.00028800 $lvl=31
R3_41 VSS:19 VSS:20 63.5281 $a=0.00014400 $lvl=30
R3_42 VSS:19 VSS:21 14.5833 $l=0.0420 $w=0.0120 $lvl=9
R3_43 VSS:20 VSS:40 50.1851 $l=0.0420 $w=0.0120 $lvl=14
R3_44 VSS:20 VSS:22 55.4677 $l=0.0420 $w=0.0120 $lvl=14
R3_45 VSS:21 VSS:22 63.5281 $a=0.00014400 $lvl=30
R3_46 VSS:21 VSS:23 14.5833 $l=0.0420 $w=0.0120 $lvl=9
R3_47 VSS:22 VSS:24 55.4677 $l=0.0420 $w=0.0120 $lvl=14
R3_48 VSS:23 VSS:24 63.5281 $a=0.00014400 $lvl=30
R3_49 VSS:23 VSS:25 14.5833 $l=0.0420 $w=0.0120 $lvl=9
R3_50 VSS:24 VSS:26 55.4677 $l=0.0420 $w=0.0120 $lvl=14
R3_51 VSS:25 VSS:26 63.5281 $a=0.00014400 $lvl=30
R3_52 VSS:26 VSS:39 50.1851 $l=0.0420 $w=0.0120 $lvl=14
R3_53 VSS:27 VSS:28 63.5281 $a=0.00014400 $lvl=30
R3_54 VSS:27 VSS:29 14.5833 $l=0.0420 $w=0.0120 $lvl=9
R3_55 VSS:28 VSS:39 50.1851 $l=0.0420 $w=0.0120 $lvl=14
R3_56 VSS:28 VSS:30 50.1851 $l=0.0420 $w=0.0120 $lvl=14
R3_57 VSS:29 VSS:30 31.764 $a=0.00028800 $lvl=31
R3_58 VSS:29 VSS:31 14.5833 $l=0.0420 $w=0.0120 $lvl=9
R3_59 VSS:30 VSS:32 50.1851 $l=0.0420 $w=0.0120 $lvl=14
R3_60 VSS:31 VSS:32 63.5281 $a=0.00014400 $lvl=30
R3_61 VSS:31 VSS:49 10.4167 $l=0.0300 $w=0.0120 $lvl=9
R3_62 VSS:32 VSS:43 39.6198 $l=0.0300 $w=0.0120 $lvl=14
R3_63 VSS:33 VSS:44 1.87763 $l=0.0150 $w=0.0250 $lvl=16
R3_64 VSS:34 VSS:45 2.73284 $l=0.0150 $w=0.0225 $lvl=16
R3_65 VSS:35 VSS:37 0.260714 $l=0.0420 $w=0.1400 $lvl=20
R3_66 VSS:36 VSS:47 2.73284 $l=0.0150 $w=0.0225 $lvl=16
R3_67 VSS:39 VSS:46 11.8654 $l=0.0200 $w=0.0200 $lvl=13
R3_68 VSS:46 VSS:48 0.4 $l=0.0100 $w=0.0250 $lvl=16
R3_69 MM7:SRC MM7:BULK 0.01 $l=0.0060 $w=100.0000 $lvl=0

*|NET VDD 0.000139469PF
*|P (VDD B 0 0.2000 0.0910) // $llx=0.1990 $lly=0.0900 $urx=0.2010 $ury=0.0900 $lvl=19
*|P (VDD_1 B 0 0.3570 0.1200) // $llx=0.3510 $lly=0.1140 $urx=0.3630 $ury=0.1260 $lvl=33
*|I (MM8:BULK MM8 BULK B 0 0.3780 0.0975) // $llx=0.3780 $lly=0.0975 $urx=0.3780 $ury=0.0975 $lvl=19
*|I (MM8:SRC MM8 SRC B 0 0.3720 0.0975) // $llx=0.3720 $lly=0.0975 $urx=0.3720 $ury=0.0975 $lvl=17
*|I (MM12:BULK MM12 BULK B 0 0.3360 0.0975) // $llx=0.3360 $lly=0.0975 $urx=0.3360 $ury=0.0975 $lvl=19
*|I (MM12:SRC MM12 SRC B 0 0.3420 0.0975) // $llx=0.3420 $lly=0.0975 $urx=0.3420 $ury=0.0975 $lvl=17
*|I (MM13:BULK MM13 BULK B 0 0.2940 0.0975) // $llx=0.2940 $lly=0.0975 $urx=0.2940 $ury=0.0975 $lvl=19
*|I (MM5:BULK MM5 BULK B 0 0.2100 0.0900) // $llx=0.2100 $lly=0.0900 $urx=0.2100 $ury=0.0900 $lvl=19
*|I (MM4:BULK MM4 BULK B 0 0.1680 0.0900) // $llx=0.1680 $lly=0.0900 $urx=0.1680 $ury=0.0900 $lvl=19
*|I (MM4:SRC MM4 SRC B 0 0.1620 0.0900) // $llx=0.1620 $lly=0.0900 $urx=0.1620 $ury=0.0900 $lvl=17
*|I (MM3:BULK MM3 BULK B 0 0.0840 0.0900) // $llx=0.0840 $lly=0.0900 $urx=0.0840 $ury=0.0900 $lvl=19
*|I (MM3:SRC MM3 SRC B 0 0.0780 0.0900) // $llx=0.0780 $lly=0.0900 $urx=0.0780 $ury=0.0900 $lvl=17
*|I (MM2:BULK MM2 BULK B 0 0.0420 0.0900) // $llx=0.0420 $lly=0.0900 $urx=0.0420 $ury=0.0900 $lvl=19
*|I (MM2:SRC MM2 SRC B 0 0.0480 0.0900) // $llx=0.0480 $lly=0.0900 $urx=0.0480 $ury=0.0900 $lvl=17
*|I (MM16:BULK MM16 BULK B 0 0.4620 0.0900) // $llx=0.4620 $lly=0.0900 $urx=0.4620 $ury=0.0900 $lvl=19
*|I (MM16:SRC MM16 SRC B 0 0.4560 0.0900) // $llx=0.4560 $lly=0.0900 $urx=0.4560 $ury=0.0900 $lvl=17
*|S (VDD:16 0.0630 0.0750) // $llx=0.0530 $lly=0.0750 $urx=0.0730 $ury=0.0750 $lvl=15
*|S (VDD:17 0.1470 0.0750) // $llx=0.1370 $lly=0.0750 $urx=0.1570 $ury=0.0750 $lvl=15
*|S (VDD:18 0.4410 0.0750) // $llx=0.4310 $lly=0.0750 $urx=0.4510 $ury=0.0750 $lvl=15
*|S (VDD:19 0.0210 0.1200) // $llx=0.0150 $lly=0.1140 $urx=0.0270 $ury=0.1260 $lvl=9
*|S (VDD:20 0.0210 0.1200) // $llx=0.0150 $lly=0.1140 $urx=0.0270 $ury=0.1260 $lvl=14
*|S (VDD:21 0.0630 0.1200) // $llx=0.0570 $lly=0.1140 $urx=0.0690 $ury=0.1260 $lvl=9
*|S (VDD:22 0.1050 0.1200) // $llx=0.0990 $lly=0.1140 $urx=0.1110 $ury=0.1260 $lvl=9
*|S (VDD:23 0.1050 0.1200) // $llx=0.0990 $lly=0.1140 $urx=0.1110 $ury=0.1260 $lvl=14
*|S (VDD:24 0.1470 0.1200) // $llx=0.1410 $lly=0.1140 $urx=0.1530 $ury=0.1260 $lvl=9
*|S (VDD:25 0.1890 0.1200) // $llx=0.1830 $lly=0.1140 $urx=0.1950 $ury=0.1260 $lvl=9
*|S (VDD:26 0.1890 0.1200) // $llx=0.1830 $lly=0.1140 $urx=0.1950 $ury=0.1260 $lvl=14
*|S (VDD:27 0.2310 0.1200) // $llx=0.2250 $lly=0.1140 $urx=0.2370 $ury=0.1260 $lvl=9
*|S (VDD:28 0.2310 0.1200) // $llx=0.2250 $lly=0.1140 $urx=0.2370 $ury=0.1260 $lvl=14
*|S (VDD:29 0.2730 0.1200) // $llx=0.2670 $lly=0.1140 $urx=0.2790 $ury=0.1260 $lvl=9
*|S (VDD:30 0.2730 0.1200) // $llx=0.2670 $lly=0.1140 $urx=0.2790 $ury=0.1260 $lvl=14
*|S (VDD:31 0.3150 0.1200) // $llx=0.3090 $lly=0.1140 $urx=0.3210 $ury=0.1260 $lvl=9
*|S (VDD:32 0.3150 0.1200) // $llx=0.3090 $lly=0.1140 $urx=0.3210 $ury=0.1260 $lvl=14
*|S (VDD:33 0.3990 0.1200) // $llx=0.3930 $lly=0.1140 $urx=0.4050 $ury=0.1260 $lvl=9
*|S (VDD:34 0.3990 0.1200) // $llx=0.3930 $lly=0.1140 $urx=0.4050 $ury=0.1260 $lvl=14
*|S (VDD:35 0.4410 0.1200) // $llx=0.4350 $lly=0.1140 $urx=0.4470 $ury=0.1260 $lvl=9
*|S (VDD:36 0.4410 0.1200) // $llx=0.4310 $lly=0.1140 $urx=0.4510 $ury=0.1260 $lvl=13
*|S (VDD:37 0.4830 0.1200) // $llx=0.4770 $lly=0.1140 $urx=0.4890 $ury=0.1260 $lvl=9
*|S (VDD:38 0.4830 0.1200) // $llx=0.4770 $lly=0.1140 $urx=0.4890 $ury=0.1260 $lvl=14
*|S (VDD:39 0.0360 0.0900) // $llx=0.0360 $lly=0.0600 $urx=0.0360 $ury=0.1200 $lvl=18
*|S (VDD:40 0.0055 0.0900) // $llx=0.0000 $lly=0.0600 $urx=0.0110 $ury=0.1200 $lvl=18
*|S (VDD:41 0.0780 0.0900) // $llx=0.0780 $lly=0.0600 $urx=0.0780 $ury=0.1200 $lvl=18
*|S (VDD:42 0.0480 0.0600) // $llx=0.0480 $lly=0.0600 $urx=0.0480 $ury=0.1200 $lvl=19
*|S (VDD:43 0.0630 0.1050) // $llx=0.0530 $lly=0.1050 $urx=0.0730 $ury=0.1050 $lvl=15
*|S (VDD:44 0.1150 0.0900) // $llx=0.1150 $lly=0.0600 $urx=0.1150 $ury=0.1200 $lvl=18
*|S (VDD:45 0.0900 0.0600) // $llx=0.0900 $lly=0.0600 $urx=0.0900 $ury=0.1200 $lvl=19
*|S (VDD:46 0.1620 0.0900) // $llx=0.1620 $lly=0.0600 $urx=0.1620 $ury=0.1200 $lvl=18
*|S (VDD:47 0.1370 0.0600) // $llx=0.1370 $lly=0.0600 $urx=0.1370 $ury=0.1200 $lvl=19
*|S (VDD:48 0.1470 0.1050) // $llx=0.1370 $lly=0.1050 $urx=0.1570 $ury=0.1050 $lvl=15
*|S (VDD:49 0.2410 0.0900) // $llx=0.2410 $lly=0.0600 $urx=0.2410 $ury=0.1200 $lvl=18
*|S (VDD:50 0.2160 0.0600) // $llx=0.2160 $lly=0.0600 $urx=0.2160 $ury=0.1200 $lvl=19
*|S (VDD:51 0.2630 0.0600) // $llx=0.2630 $lly=0.0600 $urx=0.2630 $ury=0.1200 $lvl=19
*|S (VDD:52 0.3570 0.0900) // $llx=0.3420 $lly=0.0600 $urx=0.3720 $ury=0.1200 $lvl=18
*|S (VDD:53 0.3840 0.0600) // $llx=0.3840 $lly=0.0600 $urx=0.4090 $ury=0.1200 $lvl=19
*|S (VDD:54 0.4310 0.0600) // $llx=0.4310 $lly=0.0600 $urx=0.4310 $ury=0.1200 $lvl=19
*|S (VDD:55 0.4410 0.1050) // $llx=0.4310 $lly=0.1050 $urx=0.4510 $ury=0.1050 $lvl=15
*|S (VDD:56 0.4930 0.0900) // $llx=0.4930 $lly=0.0600 $urx=0.5040 $ury=0.1200 $lvl=18
*|S (VDD:57 -0.0090 0.1200) // $llx=-0.0090 $lly=0.1140 $urx=-0.0090 $ury=0.1260 $lvl=9
*|S (VDD:58 0.3570 0.1200) // $llx=0.3470 $lly=0.1140 $urx=0.3670 $ury=0.1260 $lvl=14
*|S (VDD:59 0.1470 0.1200) // $llx=0.1370 $lly=0.1140 $urx=0.1570 $ury=0.1260 $lvl=14
*|S (VDD:60 0.0630 0.1200) // $llx=0.0530 $lly=0.1140 $urx=0.0730 $ury=0.1260 $lvl=14
*|S (VDD:61 -0.0090 0.1200) // $llx=-0.0090 $lly=0.1140 $urx=-0.0090 $ury=0.1260 $lvl=14
*|S (VDD:62 0.5130 0.1200) // $llx=0.5130 $lly=0.1140 $urx=0.5130 $ury=0.1260 $lvl=14
*|S (VDD:63 0.0630 0.0900) // $llx=0.0530 $lly=0.0900 $urx=0.0730 $ury=0.0900 $lvl=15
*|S (VDD:64 0.1470 0.0900) // $llx=0.1370 $lly=0.0900 $urx=0.1570 $ury=0.0900 $lvl=15
*|S (VDD:65 0.3570 0.1000) // $llx=0.3470 $lly=0.0950 $urx=0.3670 $ury=0.1050 $lvl=15
*|S (VDD:66 0.4410 0.0900) // $llx=0.4310 $lly=0.0900 $urx=0.4510 $ury=0.0900 $lvl=15
*|S (VDD:67 0.3570 0.0900) // $llx=0.3470 $lly=0.0900 $urx=0.3670 $ury=0.0900 $lvl=17
*|S (VDD:68 0.5130 0.1200) // $llx=0.5130 $lly=0.1140 $urx=0.5130 $ury=0.1260 $lvl=9
C4_1 VDD:36 CK:6 5.63154e-20
C4_2 VDD:57 CK:6 3.42138e-21
C4_3 VDD:36 CK:7 2.22232e-19
C4_4 VDD:57 CK:7 3.76305e-20
C4_5 VDD:36 CK:8 1.497e-19
C4_6 VDD:57 CK:8 4.14816e-20
C4_7 VDD:36 CK:9 2.61366e-19
C4_8 VDD:42 CK:9 3.44969e-21
C4_9 VDD:43 CK:9 1.67472e-19
C4_10 VDD:57 CK:9 4.85301e-21
C4_11 VDD:16 CK:11 1.82767e-20
C4_12 VDD:41 CK:11 1.22729e-20
C4_13 VDD:42 CK:11 4.10524e-20
C4_14 VDD:43 CK:11 9.00111e-20
C4_15 VDD:57 CK:11 2.11525e-18
C4_16 VDD:60 CK:11 9.82626e-20
C4_17 VDD:57 D:4 4.1405e-21
C4_18 VDD:36 D:6 6.00661e-20
C4_19 VDD:57 D:6 5.38925e-21
C4_20 VDD:36 D:7 2.31048e-19
C4_21 VDD:57 D:7 2.92512e-20
C4_22 VDD:36 D:8 1.50181e-19
C4_23 VDD:57 D:8 2.57894e-20
C4_24 VDD:36 D:9 2.86326e-19
C4_25 VDD:47 D:9 1.14344e-20
C4_26 VDD:48 D:9 2.11801e-19
C4_27 VDD:57 D:9 7.08183e-20
C4_28 VDD:59 D:9 2.21646e-18
C4_29 VDD:17 D:11 1.0966e-19
C4_30 VDD:46 D:11 3.16137e-20
C4_31 VDD:47 D:11 3.04737e-20
C4_32 VDD:48 D:11 1.05802e-19
C4_33 VDD:57 D:11 1.98054e-18
C4_34 VDD:59 D:11 3.42638e-19
C4_35 MM16:BULK MM6:BULK 1.30836e-20
C4_36 VDD:54 MM6:BULK 5.3068e-20
C4_37 VDD:57 MM6:BULK 1.52805e-18
C4_38 VDD:58 MM6:BULK 8.62372e-19
C4_39 VDD:65 MM6:BULK 2.68166e-19
C4_40 MM16:BULK MM7:BULK 2.46273e-21
C4_41 VDD:16 MM7:BULK 8.048e-19
C4_42 VDD:17 MM7:BULK 8.03898e-19
C4_43 VDD:54 MM7:BULK 8.31178e-21
C4_44 VDD:57 MM7:BULK 1.39334e-18
C4_45 VDD:59 MM7:BULK 1.33686e-18
C4_46 VDD:60 MM7:BULK 1.32744e-18
C4_47 MM13:BULK VSS:30 1.84612e-20
C4_48 VDD:36 VSS:30 3.31165e-20
C4_49 VDD:40 VSS:30 1.11515e-19
C4_50 VDD:47 VSS:30 1.25484e-19
C4_51 VDD:49 VSS:30 1.73319e-21
C4_52 VDD:52 VSS:30 1.19011e-21
C4_53 VDD:53 VSS:30 1.17691e-21
C4_54 VDD:57 VSS:30 1.00627e-19
C4_55 VDD:59 VSS:30 6.85725e-21
C4_56 VDD:36 VSS:38 3.37305e-20
C4_57 VDD:57 VSS:38 1.85157e-18
C4_58 VDD:52 VSS:39 6.61914e-21
C4_59 VDD:52 VSS:46 2.62953e-21
Cg4_60 VDD 0 2.22283e-18
Cg4_61 MM13:BULK 0 2.99587e-18
Cg4_62 MM16:BULK 0 2.47421e-18
Cg4_63 VDD:16 0 2.75468e-19
Cg4_64 VDD:17 0 2.96753e-19
Cg4_65 VDD:18 0 2.0884e-19
Cg4_66 VDD:36 0 2.50952e-17
Cg4_67 VDD:39 0 2.58844e-19
Cg4_68 VDD:40 0 1.85555e-18
Cg4_69 VDD:41 0 3.10612e-19
Cg4_70 VDD:42 0 1.91238e-18
Cg4_71 VDD:43 0 6.08929e-19
Cg4_72 VDD:44 0 2.58844e-19
Cg4_73 VDD:45 0 1.74986e-18
Cg4_74 VDD:46 0 2.58844e-19
Cg4_75 VDD:47 0 2.88022e-18
Cg4_76 VDD:48 0 1.33303e-18
Cg4_77 VDD:49 0 3.07568e-19
Cg4_78 VDD:50 0 1.75288e-18
Cg4_79 VDD:51 0 2.26881e-18
Cg4_80 VDD:52 0 2.51151e-18
Cg4_81 VDD:53 0 2.21748e-18
Cg4_82 VDD:54 0 2.61742e-18
Cg4_83 VDD:55 0 5.17687e-19
Cg4_84 VDD:56 0 2.10096e-18
Cg4_85 VDD:57 0 1.40297e-17
Cg4_86 VDD:58 0 5.6878e-19
Cg4_87 VDD:59 0 7.59411e-19
Cg4_88 VDD:60 0 7.58229e-19
Cg4_89 VDD:65 0 3.86039e-19
R4_1 VDD MM4:BULK 0.308333 $l=0.0320 $w=0.0600 $lvl=18
R4_2 VDD MM5:BULK 0.35 $l=0.0100 $w=0.0600 $lvl=18
R4_3 MM8:BULK VDD:53 0.308333 $l=0.0060 $w=0.0600 $lvl=18
R4_4 MM8:BULK VDD:52 0.35 $l=0.0210 $w=0.0600 $lvl=18
R4_5 MM8:SRC VDD:67 6.0 $l=0.0150 $w=0.0025 $lvl=17
R4_6 MM8:SRC VDD:65 1.2 $l=0.0150 $w=0.0125 $lvl=17
R4_7 MM12:BULK MM13:BULK 0.491667 $l=0.0420 $w=0.0600 $lvl=18
R4_8 MM12:BULK VDD:52 0.35 $l=0.0210 $w=0.0600 $lvl=18
R4_9 MM12:SRC VDD:67 6.0 $l=0.0150 $w=0.0025 $lvl=17
R4_10 MM12:SRC VDD:65 1.2 $l=0.0150 $w=0.0125 $lvl=17
R4_11 MM13:BULK VDD:51 0.375 $l=0.0310 $w=0.0600 $lvl=18
R4_12 MM5:BULK VDD:50 0.1 $l=0.0060 $w=0.0600 $lvl=18
R4_13 MM4:BULK VDD:46 0.1 $l=0.0060 $w=0.0600 $lvl=18
R4_14 MM4:SRC VDD:48 2.0 $l=0.0150 $w=0.0075 $lvl=17
R4_15 MM4:SRC VDD:17 2.0 $l=0.0150 $w=0.0075 $lvl=17
R4_16 MM4:SRC VDD:64 1.0 $l=0.0150 $w=0.0150 $lvl=17
R4_17 MM3:BULK VDD:45 0.1 $l=0.0060 $w=0.0600 $lvl=18
R4_18 MM3:BULK VDD:41 0.1 $l=0.0060 $w=0.0600 $lvl=18
R4_19 MM3:SRC VDD:43 2.0 $l=0.0150 $w=0.0075 $lvl=17
R4_20 MM3:SRC VDD:16 2.0 $l=0.0150 $w=0.0075 $lvl=17
R4_21 MM3:SRC VDD:63 1.0 $l=0.0150 $w=0.0150 $lvl=17
R4_22 MM2:BULK VDD:42 0.1 $l=0.0060 $w=0.0600 $lvl=18
R4_23 MM2:BULK VDD:39 0.1 $l=0.0060 $w=0.0600 $lvl=18
R4_24 MM2:SRC VDD:43 2.0 $l=0.0150 $w=0.0075 $lvl=17
R4_25 MM2:SRC VDD:16 2.0 $l=0.0150 $w=0.0075 $lvl=17
R4_26 MM2:SRC VDD:63 1.0 $l=0.0150 $w=0.0150 $lvl=17
R4_27 MM16:BULK VDD:56 0.545216 $l=0.0310 $w=0.0600 $lvl=18
R4_28 MM16:BULK VDD:54 0.516667 $l=0.0310 $w=0.0600 $lvl=18
R4_29 MM16:SRC VDD:55 2.0 $l=0.0150 $w=0.0075 $lvl=17
R4_30 MM16:SRC VDD:18 2.0 $l=0.0150 $w=0.0075 $lvl=17
R4_31 MM16:SRC VDD:66 1.0 $l=0.0150 $w=0.0150 $lvl=17
R4_32 VDD:16 VDD:63 1.87763 $l=0.0150 $w=0.0250 $lvl=17
R4_33 VDD:17 VDD:64 2.73284 $l=0.0150 $w=0.0225 $lvl=17
R4_34 VDD:18 VDD:66 2.73284 $l=0.0150 $w=0.0225 $lvl=17
R4_35 VDD:19 VDD:20 63.5281 $a=0.00014400 $lvl=30
R4_36 VDD:19 VDD:57 10.4167 $l=0.0300 $w=0.0120 $lvl=9
R4_37 VDD:19 VDD:21 14.5833 $l=0.0420 $w=0.0120 $lvl=9
R4_38 VDD:20 VDD:61 39.6198 $l=0.0300 $w=0.0120 $lvl=14
R4_39 VDD:20 VDD:60 50.1851 $l=0.0420 $w=0.0120 $lvl=14
R4_40 VDD:21 VDD:22 14.5833 $l=0.0420 $w=0.0120 $lvl=9
R4_41 VDD:21 VDD:60 31.764 $a=0.00028800 $lvl=31
R4_42 VDD:22 VDD:23 63.5281 $a=0.00014400 $lvl=30
R4_43 VDD:22 VDD:24 14.5833 $l=0.0420 $w=0.0120 $lvl=9
R4_44 VDD:23 VDD:60 50.1851 $l=0.0420 $w=0.0120 $lvl=14
R4_45 VDD:23 VDD:59 50.1851 $l=0.0420 $w=0.0120 $lvl=14
R4_46 VDD:24 VDD:25 14.5833 $l=0.0420 $w=0.0120 $lvl=9
R4_47 VDD:24 VDD:59 31.764 $a=0.00028800 $lvl=31
R4_48 VDD:25 VDD:26 63.5281 $a=0.00014400 $lvl=30
R4_49 VDD:25 VDD:27 14.5833 $l=0.0420 $w=0.0120 $lvl=9
R4_50 VDD:26 VDD:59 50.1851 $l=0.0420 $w=0.0120 $lvl=14
R4_51 VDD:26 VDD:28 55.4677 $l=0.0420 $w=0.0120 $lvl=14
R4_52 VDD:27 VDD:28 63.5281 $a=0.00014400 $lvl=30
R4_53 VDD:27 VDD:29 14.5833 $l=0.0420 $w=0.0120 $lvl=9
R4_54 VDD:28 VDD:30 55.4677 $l=0.0420 $w=0.0120 $lvl=14
R4_55 VDD:29 VDD:30 63.5281 $a=0.00014400 $lvl=30
R4_56 VDD:29 VDD:31 14.5833 $l=0.0420 $w=0.0120 $lvl=9
R4_57 VDD:30 VDD:32 55.4677 $l=0.0420 $w=0.0120 $lvl=14
R4_58 VDD:31 VDD_1 14.5833 $l=0.0420 $w=0.0120 $lvl=9
R4_59 VDD:31 VDD:32 63.5281 $a=0.00014400 $lvl=30
R4_60 VDD:32 VDD:58 50.1851 $l=0.0420 $w=0.0120 $lvl=14
R4_61 VDD:33 VDD_1 14.5833 $l=0.0420 $w=0.0120 $lvl=9
R4_62 VDD:33 VDD:34 63.5281 $a=0.00014400 $lvl=30
R4_63 VDD:33 VDD:35 14.5833 $l=0.0420 $w=0.0120 $lvl=9
R4_64 VDD:34 VDD:58 50.1851 $l=0.0420 $w=0.0120 $lvl=14
R4_65 VDD:34 VDD:36 50.1851 $l=0.0420 $w=0.0120 $lvl=14
R4_66 VDD:35 VDD:36 31.764 $a=0.00028800 $lvl=31
R4_67 VDD:35 VDD:37 14.5833 $l=0.0420 $w=0.0120 $lvl=9
R4_68 VDD:36 VDD:55 8.89907 $l=0.0150 $w=0.0200 $lvl=13
R4_69 VDD:36 VDD:38 50.1851 $l=0.0420 $w=0.0120 $lvl=14
R4_70 VDD:37 VDD:38 63.5281 $a=0.00014400 $lvl=30
R4_71 VDD:37 VDD:68 10.4167 $l=0.0300 $w=0.0120 $lvl=9
R4_72 VDD:38 VDD:62 39.6198 $l=0.0300 $w=0.0120 $lvl=14
R4_73 VDD:39 VDD:40 0.406667 $l=0.0305 $w=0.0750 $lvl=18
R4_74 VDD:41 VDD:42 0.5 $l=0.0300 $w=0.0600 $lvl=18
R4_75 VDD:43 VDD:63 1.87763 $l=0.0150 $w=0.0250 $lvl=17
R4_76 VDD:43 VDD:60 8.89907 $l=0.0150 $w=0.0200 $lvl=13
R4_77 VDD:44 VDD:45 0.416667 $l=0.0250 $w=0.0600 $lvl=18
R4_78 VDD:44 VDD:47 0.366667 $l=0.0220 $w=0.0600 $lvl=18
R4_79 VDD:46 VDD:47 0.416667 $l=0.0250 $w=0.0600 $lvl=18
R4_80 VDD:48 VDD:64 2.73284 $l=0.0150 $w=0.0225 $lvl=17
R4_81 VDD:48 VDD:59 8.89907 $l=0.0150 $w=0.0200 $lvl=13
R4_82 VDD:49 VDD:50 0.416667 $l=0.0250 $w=0.0600 $lvl=18
R4_83 VDD:49 VDD:51 0.366667 $l=0.0220 $w=0.0600 $lvl=18
R4_84 VDD:53 VDD:54 0.575 $l=0.0470 $w=0.0600 $lvl=18
R4_85 VDD:55 VDD:66 2.73284 $l=0.0150 $w=0.0225 $lvl=17
R4_86 VDD:58 VDD:65 11.8654 $l=0.0200 $w=0.0200 $lvl=13
R4_87 VDD:58 VDD_1 31.764 $a=0.00028800 $lvl=31
R4_88 VDD:65 VDD:67 0.4 $l=0.0100 $w=0.0250 $lvl=17
R4_89 VDD:52 VDD:67 0.01 $l=0.0000 $w=100.0000 $lvl=0

*|NET Q 1.55631e-05PF
*|P (Q B 0 0.4830 0.0600) // $llx=0.4820 $lly=0.0590 $urx=0.4840 $ury=0.0610 $lvl=33
*|I (MM17:DRN MM17 DRN B 0 0.4680 0.0300) // $llx=0.4680 $lly=0.0300 $urx=0.4680 $ury=0.0300 $lvl=16
*|I (MM16:DRN MM16 DRN B 0 0.4680 0.0900) // $llx=0.4680 $lly=0.0900 $urx=0.4680 $ury=0.0900 $lvl=17
*|S (Q:4 0.4830 0.0150) // $llx=0.4730 $lly=0.0150 $urx=0.4930 $ury=0.0150 $lvl=13
*|S (Q:5 0.4830 0.0750) // $llx=0.4730 $lly=0.0750 $urx=0.4930 $ury=0.0750 $lvl=13
*|S (Q:6 0.4830 0.0450) // $llx=0.4730 $lly=0.0450 $urx=0.4930 $ury=0.0450 $lvl=13
*|S (Q:7 0.4830 0.1050) // $llx=0.4730 $lly=0.1050 $urx=0.4930 $ury=0.1050 $lvl=13
*|S (Q:8 0.4830 0.0300) // $llx=0.4770 $lly=0.0240 $urx=0.4890 $ury=0.0360 $lvl=9
*|S (Q:9 0.4830 0.0300) // $llx=0.4730 $lly=0.0240 $urx=0.4930 $ury=0.0360 $lvl=13
*|S (Q:10 0.4830 0.0900) // $llx=0.4770 $lly=0.0840 $urx=0.4890 $ury=0.0960 $lvl=9
*|S (Q:11 0.4830 0.0900) // $llx=0.4730 $lly=0.0840 $urx=0.4930 $ury=0.0960 $lvl=13
*|S (Q:12 0.4830 0.0180) // $llx=0.4770 $lly=0.0180 $urx=0.4890 $ury=0.0180 $lvl=9
*|S (Q:13 0.4830 0.1020) // $llx=0.4770 $lly=0.1020 $urx=0.4890 $ury=0.1020 $lvl=9
C5_1 MM17:DRN MM6:BULK 2.06694e-20
C5_2 Q:12 MM6:BULK 2.20975e-19
C5_3 MM17:DRN VSS:12 3.78986e-20