*
*|DSPF 1.3
*|DESIGN INVx14
*|DATE "Tue Oct 15 21:10:45 2024"
*|VENDOR "Synopsys"
*|PROGRAM "StarRC"
*|VERSION "V-2023.12-SP5"
*|DIVIDER .
*|DELIMITER :
**FORMAT SPF
*

** COMMENTS

** OPERATING_TEMPERATURE 25
** GLOBAL_TEMPERATURE 25
** 
** TCAD_GRD_FILE /home/gtcad/ctsai314/ITF_Modification/0_reference/3nm_FF_noBPR.nxtgrd
**   TCAD_TIME_STAMP Tue Sep 3 21:56:12 2024
**   TCADGRD_VERSION 89

.SUBCKT INVx14 A VDD VSS Y

*|GROUND_NET 0

*LAYER_MAP

*0 SUBSTRATE
*1 m9    ITF=M9
*2 m8    ITF=M8
*3 m7    ITF=M7
*4 m6    ITF=M6
*5 m5    ITF=M5
*6 m4    ITF=M4
*7 m3    ITF=M3
*8 m2    ITF=M2
*9 m1    ITF=M1
*10 fpoly    ITF=Gate
*11 ngate    ITF=Gate
*12 pgate    ITF=Gate
*13 lisd    ITF=LISD
*14 lig    ITF=LIG
*15 sdt    ITF=SDT
*16 nsd    ITF=Active
*17 psd    ITF=Active
*18 pselect    ITF=Active
*19 well    ITF=Active
*20 sub    ITF=Active
*21 nselect    ITF=Active
*22 v8    ITF=V8
*23 v7    ITF=V7
*24 v6    ITF=V6
*25 v5    ITF=V5
*26 v4    ITF=V4
*27 v3    ITF=V3
*28 v2    ITF=V2
*29 v1    ITF=V1
*30 v0lig    ITF=V0LIG
*31 v0lisd    ITF=V0LISD
*32 well_pin    ITF=Active
*33 M1_pin    ITF=M1
*34 M2_pin    ITF=M2
*35 M3_pin    ITF=M3
*36 M4_pin    ITF=M4
*37 M5_pin    ITF=M5
*38 M6_pin    ITF=M6
*39 M7_pin    ITF=M7
*40 M8_pin    ITF=M8
*41 M9_pin    ITF=M9

*|NET A 0.000120772PF
*|P (A B 0 0.0210 0.0600) // $llx=0.0200 $lly=0.0590 $urx=0.0220 $ury=0.0610 $lvl=33
*|I (MM27:GATE MM27 GATE I 3.6e-19 0.5880 0.0300) // $llx=0.5880 $lly=0.0300 $urx=0.5880 $ury=0.0300 $lvl=11
*|I (MM4:GATE MM4 GATE I 3.6e-19 0.2100 0.0300) // $llx=0.2100 $lly=0.0300 $urx=0.2100 $ury=0.0300 $lvl=11
*|I (MM3:GATE MM3 GATE I 3.6e-19 0.1680 0.0300) // $llx=0.1680 $lly=0.0300 $urx=0.1680 $ury=0.0300 $lvl=11
*|I (MM2:GATE MM2 GATE I 3.6e-19 0.1260 0.0300) // $llx=0.1260 $lly=0.0300 $urx=0.1260 $ury=0.0300 $lvl=11
*|I (MM1:GATE MM1 GATE I 3.6e-19 0.0840 0.0300) // $llx=0.0840 $lly=0.0300 $urx=0.0840 $ury=0.0300 $lvl=11
*|I (MM0:GATE MM0 GATE I 3.6e-19 0.0420 0.0300) // $llx=0.0420 $lly=0.0300 $urx=0.0420 $ury=0.0300 $lvl=11
*|I (MM26:GATE MM26 GATE I 3.6e-19 0.5880 0.0900) // $llx=0.5880 $lly=0.0900 $urx=0.5880 $ury=0.0900 $lvl=12
*|I (MM25:GATE MM25 GATE I 3.6e-19 0.5460 0.0900) // $llx=0.5460 $lly=0.0900 $urx=0.5460 $ury=0.0900 $lvl=12
*|I (MM23:GATE MM23 GATE I 3.6e-19 0.5040 0.0900) // $llx=0.5040 $lly=0.0900 $urx=0.5040 $ury=0.0900 $lvl=12
*|I (MM20:GATE MM20 GATE I 3.6e-19 0.4620 0.0900) // $llx=0.4620 $lly=0.0900 $urx=0.4620 $ury=0.0900 $lvl=12
*|I (MM19:GATE MM19 GATE I 3.6e-19 0.4200 0.0900) // $llx=0.4200 $lly=0.0900 $urx=0.4200 $ury=0.0900 $lvl=12
*|I (MM24:GATE MM24 GATE I 3.6e-19 0.5460 0.0300) // $llx=0.5460 $lly=0.0300 $urx=0.5460 $ury=0.0300 $lvl=11
*|I (MM16:GATE MM16 GATE I 3.6e-19 0.3780 0.0900) // $llx=0.3780 $lly=0.0900 $urx=0.3780 $ury=0.0900 $lvl=12
*|I (MM15:GATE MM15 GATE I 3.6e-19 0.3360 0.0900) // $llx=0.3360 $lly=0.0900 $urx=0.3360 $ury=0.0900 $lvl=12
*|I (MM14:GATE MM14 GATE I 3.6e-19 0.2940 0.0900) // $llx=0.2940 $lly=0.0900 $urx=0.2940 $ury=0.0900 $lvl=12
*|I (MM13:GATE MM13 GATE I 3.6e-19 0.2520 0.0900) // $llx=0.2520 $lly=0.0900 $urx=0.2520 $ury=0.0900 $lvl=12
*|I (MM12:GATE MM12 GATE I 3.6e-19 0.2100 0.0900) // $llx=0.2100 $lly=0.0900 $urx=0.2100 $ury=0.0900 $lvl=12
*|I (MM11:GATE MM11 GATE I 3.6e-19 0.1680 0.0900) // $llx=0.1680 $lly=0.0900 $urx=0.1680 $ury=0.0900 $lvl=12
*|I (MM10:GATE MM10 GATE I 3.6e-19 0.1260 0.0900) // $llx=0.1260 $lly=0.0900 $urx=0.1260 $ury=0.0900 $lvl=12
*|I (MM9:GATE MM9 GATE I 3.6e-19 0.0840 0.0900) // $llx=0.0840 $lly=0.0900 $urx=0.0840 $ury=0.0900 $lvl=12
*|I (MM8:GATE MM8 GATE I 3.6e-19 0.0420 0.0900) // $llx=0.0420 $lly=0.0900 $urx=0.0420 $ury=0.0900 $lvl=12
*|I (MM22:GATE MM22 GATE I 3.6e-19 0.5040 0.0300) // $llx=0.5040 $lly=0.0300 $urx=0.5040 $ury=0.0300 $lvl=11
*|I (MM21:GATE MM21 GATE I 3.6e-19 0.4620 0.0300) // $llx=0.4620 $lly=0.0300 $urx=0.4620 $ury=0.0300 $lvl=11
*|I (MM18:GATE MM18 GATE I 3.6e-19 0.4200 0.0300) // $llx=0.4200 $lly=0.0300 $urx=0.4200 $ury=0.0300 $lvl=11
*|I (MM17:GATE MM17 GATE I 3.6e-19 0.3780 0.0300) // $llx=0.3780 $lly=0.0300 $urx=0.3780 $ury=0.0300 $lvl=11
*|I (MM7:GATE MM7 GATE I 3.6e-19 0.3360 0.0300) // $llx=0.3360 $lly=0.0300 $urx=0.3360 $ury=0.0300 $lvl=11
*|I (MM6:GATE MM6 GATE I 3.6e-19 0.2940 0.0300) // $llx=0.2940 $lly=0.0300 $urx=0.2940 $ury=0.0300 $lvl=11
*|I (MM5:GATE MM5 GATE I 3.6e-19 0.2520 0.0300) // $llx=0.2520 $lly=0.0300 $urx=0.2520 $ury=0.0300 $lvl=11
*|S (A:30 0.0420 0.0150) // $llx=0.0360 $lly=0.0150 $urx=0.0480 $ury=0.0150 $lvl=10
*|S (A:31 0.0420 0.0450) // $llx=0.0360 $lly=0.0450 $urx=0.0480 $ury=0.0450 $lvl=11
*|S (A:32 0.0420 0.0750) // $llx=0.0360 $lly=0.0750 $urx=0.0480 $ury=0.0750 $lvl=10
*|S (A:33 0.0420 0.1050) // $llx=0.0360 $lly=0.1050 $urx=0.0480 $ury=0.1050 $lvl=12
*|S (A:34 0.0420 0.1100) // $llx=0.0360 $lly=0.1100 $urx=0.0480 $ury=0.1100 $lvl=10
*|S (A:35 0.0840 0.0150) // $llx=0.0780 $lly=0.0150 $urx=0.0900 $ury=0.0150 $lvl=10
*|S (A:36 0.0840 0.0450) // $llx=0.0780 $lly=0.0450 $urx=0.0900 $ury=0.0450 $lvl=11
*|S (A:37 0.0840 0.0750) // $llx=0.0780 $lly=0.0750 $urx=0.0900 $ury=0.0750 $lvl=10
*|S (A:38 0.0840 0.1050) // $llx=0.0780 $lly=0.1050 $urx=0.0900 $ury=0.1050 $lvl=12
*|S (A:39 0.0840 0.1100) // $llx=0.0780 $lly=0.1100 $urx=0.0900 $ury=0.1100 $lvl=10
*|S (A:40 0.1260 0.0150) // $llx=0.1200 $lly=0.0150 $urx=0.1320 $ury=0.0150 $lvl=10
*|S (A:41 0.1260 0.0450) // $llx=0.1200 $lly=0.0450 $urx=0.1320 $ury=0.0450 $lvl=11
*|S (A:42 0.1260 0.0750) // $llx=0.1200 $lly=0.0750 $urx=0.1320 $ury=0.0750 $lvl=10
*|S (A:43 0.1260 0.1050) // $llx=0.1200 $lly=0.1050 $urx=0.1320 $ury=0.1050 $lvl=12
*|S (A:44 0.1260 0.1100) // $llx=0.1200 $lly=0.1100 $urx=0.1320 $ury=0.1100 $lvl=10
*|S (A:45 0.1680 0.0150) // $llx=0.1620 $lly=0.0150 $urx=0.1740 $ury=0.0150 $lvl=10
*|S (A:46 0.1680 0.0450) // $llx=0.1620 $lly=0.0450 $urx=0.1740 $ury=0.0450 $lvl=11
*|S (A:47 0.1680 0.0750) // $llx=0.1620 $lly=0.0750 $urx=0.1740 $ury=0.0750 $lvl=10
*|S (A:48 0.1680 0.1050) // $llx=0.1620 $lly=0.1050 $urx=0.1740 $ury=0.1050 $lvl=12
*|S (A:49 0.1680 0.1100) // $llx=0.1620 $lly=0.1100 $urx=0.1740 $ury=0.1100 $lvl=10
*|S (A:50 0.2100 0.0150) // $llx=0.2040 $lly=0.0150 $urx=0.2160 $ury=0.0150 $lvl=10
*|S (A:51 0.2100 0.0450) // $llx=0.2040 $lly=0.0450 $urx=0.2160 $ury=0.0450 $lvl=11
*|S (A:52 0.2100 0.0750) // $llx=0.2040 $lly=0.0750 $urx=0.2160 $ury=0.0750 $lvl=10
*|S (A:53 0.2100 0.1050) // $llx=0.2040 $lly=0.1050 $urx=0.2160 $ury=0.1050 $lvl=12
*|S (A:54 0.2100 0.1100) // $llx=0.2040 $lly=0.1100 $urx=0.2160 $ury=0.1100 $lvl=10
*|S (A:55 0.2520 0.0150) // $llx=0.2460 $lly=0.0150 $urx=0.2580 $ury=0.0150 $lvl=10
*|S (A:56 0.2520 0.0450) // $llx=0.2460 $lly=0.0450 $urx=0.2580 $ury=0.0450 $lvl=11
*|S (A:57 0.2520 0.0750) // $llx=0.2460 $lly=0.0750 $urx=0.2580 $ury=0.0750 $lvl=10
*|S (A:58 0.2520 0.1050) // $llx=0.2460 $lly=0.1050 $urx=0.2580 $ury=0.1050 $lvl=12
*|S (A:59 0.2520 0.1100) // $llx=0.2460 $lly=0.1100 $urx=0.2580 $ury=0.1100 $lvl=10
*|S (A:60 0.2940 0.0150) // $llx=0.2880 $lly=0.0150 $urx=0.3000 $ury=0.0150 $lvl=10
*|S (A:61 0.2940 0.0450) // $llx=0.2880 $lly=0.0450 $urx=0.3000 $ury=0.0450 $lvl=11
*|S (A:62 0.2940 0.0750) // $llx=0.2880 $lly=0.0750 $urx=0.3000 $ury=0.0750 $lvl=10
*|S (A:63 0.2940 0.1050) // $llx=0.2880 $lly=0.1050 $urx=0.3000 $ury=0.1050 $lvl=12
*|S (A:64 0.2940 0.1100) // $llx=0.2880 $lly=0.1100 $urx=0.3000 $ury=0.1100 $lvl=10
*|S (A:65 0.3360 0.0150) // $llx=0.3300 $lly=0.0150 $urx=0.3420 $ury=0.0150 $lvl=10
*|S (A:66 0.3360 0.0450) // $llx=0.3300 $lly=0.0450 $urx=0.3420 $ury=0.0450 $lvl=11
*|S (A:67 0.3360 0.0750) // $llx=0.3300 $lly=0.0750 $urx=0.3420 $ury=0.0750 $lvl=10
*|S (A:68 0.3360 0.1050) // $llx=0.3300 $lly=0.1050 $urx=0.3420 $ury=0.1050 $lvl=12
*|S (A:69 0.3360 0.1100) // $llx=0.3300 $lly=0.1100 $urx=0.3420 $ury=0.1100 $lvl=10
*|S (A:70 0.3780 0.0150) // $llx=0.3720 $lly=0.0150 $urx=0.3840 $ury=0.0150 $lvl=10
*|S (A:71 0.3780 0.0450) // $llx=0.3720 $lly=0.0450 $urx=0.3840 $ury=0.0450 $lvl=11
*|S (A:72 0.3780 0.0750) // $llx=0.3720 $lly=0.0750 $urx=0.3840 $ury=0.0750 $lvl=10
*|S (A:73 0.3780 0.1050) // $llx=0.3720 $lly=0.1050 $urx=0.3840 $ury=0.1050 $lvl=12
*|S (A:74 0.3780 0.1100) // $llx=0.3720 $lly=0.1100 $urx=0.3840 $ury=0.1100 $lvl=10
*|S (A:75 0.4200 0.0150) // $llx=0.4140 $lly=0.0150 $urx=0.4260 $ury=0.0150 $lvl=10
*|S (A:76 0.4200 0.0450) // $llx=0.4140 $lly=0.0450 $urx=0.4260 $ury=0.0450 $lvl=11
*|S (A:77 0.4200 0.0750) // $llx=0.4140 $lly=0.0750 $urx=0.4260 $ury=0.0750 $lvl=10
*|S (A:78 0.4200 0.1050) // $llx=0.4140 $lly=0.1050 $urx=0.4260 $ury=0.1050 $lvl=12
*|S (A:79 0.4200 0.1100) // $llx=0.4140 $lly=0.1100 $urx=0.4260 $ury=0.1100 $lvl=10
*|S (A:80 0.4620 0.0150) // $llx=0.4560 $lly=0.0150 $urx=0.4680 $ury=0.0150 $lvl=10
*|S (A:81 0.4620 0.0450) // $llx=0.4560 $lly=0.0450 $urx=0.4680 $ury=0.0450 $lvl=11
*|S (A:82 0.4620 0.0750) // $llx=0.4560 $lly=0.0750 $urx=0.4680 $ury=0.0750 $lvl=10
*|S (A:83 0.4620 0.1050) // $llx=0.4560 $lly=0.1050 $urx=0.4680 $ury=0.1050 $lvl=12
*|S (A:84 0.4620 0.1100) // $llx=0.4560 $lly=0.1100 $urx=0.4680 $ury=0.1100 $lvl=10
*|S (A:85 0.5040 0.0150) // $llx=0.4980 $lly=0.0150 $urx=0.5100 $ury=0.0150 $lvl=10
*|S (A:86 0.5040 0.0450) // $llx=0.4980 $lly=0.0450 $urx=0.5100 $ury=0.0450 $lvl=11
*|S (A:87 0.5040 0.0750) // $llx=0.4980 $lly=0.0750 $urx=0.5100 $ury=0.0750 $lvl=10
*|S (A:88 0.5040 0.1050) // $llx=0.4980 $lly=0.1050 $urx=0.5100 $ury=0.1050 $lvl=12
*|S (A:89 0.5040 0.1100) // $llx=0.4980 $lly=0.1100 $urx=0.5100 $ury=0.1100 $lvl=10
*|S (A:90 0.5460 0.0150) // $llx=0.5400 $lly=0.0150 $urx=0.5520 $ury=0.0150 $lvl=10
*|S (A:91 0.5460 0.0450) // $llx=0.5400 $lly=0.0450 $urx=0.5520 $ury=0.0450 $lvl=11
*|S (A:92 0.5460 0.0750) // $llx=0.5400 $lly=0.0750 $urx=0.5520 $ury=0.0750 $lvl=10
*|S (A:93 0.5460 0.1050) // $llx=0.5400 $lly=0.1050 $urx=0.5520 $ury=0.1050 $lvl=12
*|S (A:94 0.5460 0.1100) // $llx=0.5400 $lly=0.1100 $urx=0.5520 $ury=0.1100 $lvl=10
*|S (A:95 0.5880 0.0150) // $llx=0.5820 $lly=0.0150 $urx=0.5940 $ury=0.0150 $lvl=10
*|S (A:96 0.5880 0.0450) // $llx=0.5820 $lly=0.0450 $urx=0.5940 $ury=0.0450 $lvl=11
*|S (A:97 0.5880 0.0750) // $llx=0.5820 $lly=0.0750 $urx=0.5940 $ury=0.0750 $lvl=10
*|S (A:98 0.5880 0.1050) // $llx=0.5820 $lly=0.1050 $urx=0.5940 $ury=0.1050 $lvl=12
*|S (A:99 0.5880 0.1100) // $llx=0.5820 $lly=0.1100 $urx=0.5940 $ury=0.1100 $lvl=10
*|S (A:100 0.5460 0.0600) // $llx=0.5400 $lly=0.0540 $urx=0.5520 $ury=0.0660 $lvl=10
*|S (A:101 0.0420 0.0600) // $llx=0.0360 $lly=0.0540 $urx=0.0480 $ury=0.0660 $lvl=9
*|S (A:102 0.0420 0.0600) // $llx=0.0360 $lly=0.0540 $urx=0.0480 $ury=0.0660 $lvl=10
*|S (A:103 0.0840 0.0600) // $llx=0.0780 $lly=0.0540 $urx=0.0900 $ury=0.0660 $lvl=9
*|S (A:104 0.0840 0.0600) // $llx=0.0780 $lly=0.0540 $urx=0.0900 $ury=0.0660 $lvl=10
*|S (A:105 0.1260 0.0600) // $llx=0.1200 $lly=0.0540 $urx=0.1320 $ury=0.0660 $lvl=9
*|S (A:106 0.1260 0.0600) // $llx=0.1200 $lly=0.0540 $urx=0.1320 $ury=0.0660 $lvl=10
*|S (A:107 0.1680 0.0600) // $llx=0.1620 $lly=0.0540 $urx=0.1740 $ury=0.0660 $lvl=9
*|S (A:108 0.1680 0.0600) // $llx=0.1620 $lly=0.0540 $urx=0.1740 $ury=0.0660 $lvl=10
*|S (A:109 0.2100 0.0600) // $llx=0.2040 $lly=0.0540 $urx=0.2160 $ury=0.0660 $lvl=9
*|S (A:110 0.2100 0.0600) // $llx=0.2040 $lly=0.0540 $urx=0.2160 $ury=0.0660 $lvl=10
*|S (A:111 0.2520 0.0600) // $llx=0.2460 $lly=0.0540 $urx=0.2580 $ury=0.0660 $lvl=9
*|S (A:112 0.2520 0.0600) // $llx=0.2460 $lly=0.0540 $urx=0.2580 $ury=0.0660 $lvl=10
*|S (A:113 0.2940 0.0600) // $llx=0.2880 $lly=0.0540 $urx=0.3000 $ury=0.0660 $lvl=9
*|S (A:114 0.2940 0.0600) // $llx=0.2880 $lly=0.0540 $urx=0.3000 $ury=0.0660 $lvl=10
*|S (A:115 0.3360 0.0600) // $llx=0.3300 $lly=0.0540 $urx=0.3420 $ury=0.0660 $lvl=9
*|S (A:116 0.3360 0.0600) // $llx=0.3300 $lly=0.0540 $urx=0.3420 $ury=0.0660 $lvl=10
*|S (A:117 0.3780 0.0600) // $llx=0.3720 $lly=0.0540 $urx=0.3840 $ury=0.0660 $lvl=9
*|S (A:118 0.3780 0.0600) // $llx=0.3720 $lly=0.0540 $urx=0.3840 $ury=0.0660 $lvl=10
*|S (A:119 0.4200 0.0600) // $llx=0.4140 $lly=0.0540 $urx=0.4260 $ury=0.0660 $lvl=9
*|S (A:120 0.4200 0.0600) // $llx=0.4140 $lly=0.0540 $urx=0.4260 $ury=0.0660 $lvl=10
*|S (A:121 0.4620 0.0600) // $llx=0.4560 $lly=0.0540 $urx=0.4680 $ury=0.0660 $lvl=9
*|S (A:122 0.4620 0.0600) // $llx=0.4560 $lly=0.0540 $urx=0.4680 $ury=0.0660 $lvl=10
*|S (A:123 0.5040 0.0600) // $llx=0.4980 $lly=0.0540 $urx=0.5100 $ury=0.0660 $lvl=9
*|S (A:124 0.5040 0.0600) // $llx=0.4980 $lly=0.0540 $urx=0.5100 $ury=0.0660 $lvl=10
*|S (A:125 0.5670 0.0600) // $llx=0.5610 $lly=0.0540 $urx=0.5730 $ury=0.0660 $lvl=9
*|S (A:126 0.5670 0.0600) // $llx=0.5610 $lly=0.0540 $urx=0.5730 $ury=0.0660 $lvl=14
*|S (A:127 0.5730 0.0600) // $llx=0.5730 $lly=0.0540 $urx=0.5730 $ury=0.0660 $lvl=9
*|S (A:128 0.0210 0.1020) // $llx=0.0150 $lly=0.1020 $urx=0.0270 $ury=0.1020 $lvl=9
*|S (A:129 0.0420 0.0100) // $llx=0.0360 $lly=0.0100 $urx=0.0480 $ury=0.0100 $lvl=10
*|S (A:130 0.0840 0.0100) // $llx=0.0780 $lly=0.0100 $urx=0.0900 $ury=0.0100 $lvl=10
*|S (A:131 0.1260 0.0100) // $llx=0.1200 $lly=0.0100 $urx=0.1320 $ury=0.0100 $lvl=10
*|S (A:132 0.1680 0.0100) // $llx=0.1620 $lly=0.0100 $urx=0.1740 $ury=0.0100 $lvl=10
*|S (A:133 0.2100 0.0100) // $llx=0.2040 $lly=0.0100 $urx=0.2160 $ury=0.0100 $lvl=10
*|S (A:134 0.2520 0.0100) // $llx=0.2460 $lly=0.0100 $urx=0.2580 $ury=0.0100 $lvl=10
*|S (A:135 0.2940 0.0100) // $llx=0.2880 $lly=0.0100 $urx=0.3000 $ury=0.0100 $lvl=10
*|S (A:136 0.3360 0.0100) // $llx=0.3300 $lly=0.0100 $urx=0.3420 $ury=0.0100 $lvl=10
*|S (A:137 0.3780 0.0100) // $llx=0.3720 $lly=0.0100 $urx=0.3840 $ury=0.0100 $lvl=10
*|S (A:138 0.4200 0.0100) // $llx=0.4140 $lly=0.0100 $urx=0.4260 $ury=0.0100 $lvl=10
*|S (A:139 0.4620 0.0100) // $llx=0.4560 $lly=0.0100 $urx=0.4680 $ury=0.0100 $lvl=10
*|S (A:140 0.5040 0.0100) // $llx=0.4980 $lly=0.0100 $urx=0.5100 $ury=0.0100 $lvl=10
*|S (A:141 0.5460 0.0100) // $llx=0.5400 $lly=0.0100 $urx=0.5520 $ury=0.0100 $lvl=10
*|S (A:142 0.5880 0.0100) // $llx=0.5820 $lly=0.0100 $urx=0.5940 $ury=0.0100 $lvl=10
*|S (A:143 0.5880 0.0600) // $llx=0.5820 $lly=0.0540 $urx=0.5940 $ury=0.0660 $lvl=10
*|S (A:144 0.0210 0.0180) // $llx=0.0150 $lly=0.0180 $urx=0.0270 $ury=0.0180 $lvl=9
Cg1_1 A 0 1.76928e-18
Cg1_2 A:30 0 6.02191e-20
Cg1_3 A:31 0 2.43715e-19
Cg1_4 A:32 0 2.6987e-19
Cg1_5 A:33 0 3.75304e-19
Cg1_6 A:34 0 1.72208e-19
Cg1_7 A:35 0 6.11935e-20
Cg1_8 A:36 0 2.43715e-19
Cg1_9 A:37 0 2.70364e-19
Cg1_10 A:38 0 3.68393e-19
Cg1_11 A:39 0 1.74064e-19
Cg1_12 A:40 0 6.11935e-20
Cg1_13 A:41 0 2.43715e-19
Cg1_14 A:42 0 2.70364e-19
Cg1_15 A:43 0 3.68393e-19
Cg1_16 A:44 0 1.74064e-19
Cg1_17 A:45 0 6.11935e-20
Cg1_18 A:46 0 2.43715e-19
Cg1_19 A:47 0 2.70364e-19
Cg1_20 A:48 0 3.68393e-19
Cg1_21 A:49 0 1.74064e-19
Cg1_22 A:50 0 6.11935e-20
Cg1_23 A:51 0 2.43715e-19
Cg1_24 A:52 0 2.70364e-19
Cg1_25 A:53 0 3.68393e-19
Cg1_26 A:54 0 1.74064e-19
Cg1_27 A:55 0 6.11935e-20
Cg1_28 A:56 0 2.43715e-19
Cg1_29 A:57 0 2.70364e-19
Cg1_30 A:58 0 3.68393e-19
Cg1_31 A:59 0 1.74064e-19
Cg1_32 A:60 0 6.11935e-20
Cg1_33 A:61 0 2.43715e-19
Cg1_34 A:62 0 2.70364e-19
Cg1_35 A:63 0 3.68393e-19
Cg1_36 A:64 0 1.74064e-19
Cg1_37 A:65 0 6.11935e-20
Cg1_38 A:66 0 2.43715e-19
Cg1_39 A:67 0 2.70364e-19
Cg1_40 A:68 0 3.68393e-19
Cg1_41 A:69 0 1.74064e-19
Cg1_42 A:70 0 6.11935e-20
Cg1_43 A:71 0 2.43715e-19
Cg1_44 A:72 0 2.70364e-19
Cg1_45 A:73 0 3.68393e-19
Cg1_46 A:74 0 1.74064e-19
Cg1_47 A:75 0 6.11935e-20
Cg1_48 A:76 0 2.43715e-19
Cg1_49 A:77 0 2.70364e-19
Cg1_50 A:78 0 3.68393e-19
Cg1_51 A:79 0 1.74064e-19
Cg1_52 A:80 0 6.11935e-20
Cg1_53 A:81 0 2.43715e-19
Cg1_54 A:82 0 2.70364e-19
Cg1_55 A:83 0 3.68393e-19
Cg1_56 A:84 0 1.74064e-19
Cg1_57 A:85 0 6.11935e-20
Cg1_58 A:86 0 2.43715e-19
Cg1_59 A:87 0 2.70364e-19
Cg1_60 A:88 0 3.68393e-19
Cg1_61 A:89 0 1.74064e-19
Cg1_62 A:90 0 4.06191e-20
Cg1_63 A:91 0 2.43715e-19
Cg1_64 A:92 0 2.70364e-19
Cg1_65 A:93 0 3.68393e-19
Cg1_66 A:94 0 1.74064e-19
Cg1_67 A:95 0 3.64468e-19
Cg1_68 A:96 0 2.43715e-19
Cg1_69 A:97 0 2.43715e-19
Cg1_70 A:98 0 2.43715e-19
Cg1_71 A:99 0 1.74064e-19
Cg1_72 A:100 0 2.61922e-19
Cg1_73 A:102 0 7.35588e-20
Cg1_74 A:104 0 7.35727e-20
Cg1_75 A:106 0 7.35727e-20
Cg1_76 A:108 0 7.35727e-20
Cg1_77 A:110 0 7.35727e-20
Cg1_78 A:112 0 7.35727e-20
Cg1_79 A:114 0 7.35727e-20
Cg1_80 A:116 0 7.35727e-20
Cg1_81 A:118 0 7.35727e-20
Cg1_82 A:120 0 7.35727e-20
Cg1_83 A:122 0 7.35727e-20
Cg1_84 A:124 0 7.35727e-20
Cg1_85 A:127 0 8.07422e-18
Cg1_86 A:128 0 1.9395e-18
R1_1 A A:128 14.5833 $l=0.0420 $w=0.0120 $lvl=9
R1_2 A A:144 13.5417 $l=0.0420 $w=0.0120 $lvl=9
R1_3 A A:101 7.29167 $l=0.0210 $w=0.0120 $lvl=9
R1_4 MM27:GATE A:96 6.57895 $l=0.0150 $w=0.0120 $lvl=11
R1_5 MM27:GATE A:95 6.57895 $l=0.0150 $w=0.0120 $lvl=11
R1_6 MM4:GATE A:51 6.57895 $l=0.0150 $w=0.0120 $lvl=11
R1_7 MM4:GATE A:50 6.57895 $l=0.0150 $w=0.0120 $lvl=11
R1_8 MM3:GATE A:46 6.57895 $l=0.0150 $w=0.0120 $lvl=11
R1_9 MM3:GATE A:45 6.57895 $l=0.0150 $w=0.0120 $lvl=11
R1_10 MM2:GATE A:41 6.57895 $l=0.0150 $w=0.0120 $lvl=11
R1_11 MM2:GATE A:40 6.57895 $l=0.0150 $w=0.0120 $lvl=11
R1_12 MM1:GATE A:36 6.57895 $l=0.0150 $w=0.0120 $lvl=11
R1_13 MM1:GATE A:35 6.57895 $l=0.0150 $w=0.0120 $lvl=11
R1_14 MM0:GATE A:31 6.57895 $l=0.0150 $w=0.0120 $lvl=11
R1_15 MM0:GATE A:30 6.57895 $l=0.0150 $w=0.0120 $lvl=11
R1_16 MM26:GATE A:98 6.57895 $l=0.0150 $w=0.0120 $lvl=12
R1_17 MM26:GATE A:97 6.57895 $l=0.0150 $w=0.0120 $lvl=12
R1_18 MM25:GATE A:93 6.57895 $l=0.0150 $w=0.0120 $lvl=12
R1_19 MM25:GATE A:92 6.57895 $l=0.0150 $w=0.0120 $lvl=12
R1_20 MM23:GATE A:88 6.57895 $l=0.0150 $w=0.0120 $lvl=12
R1_21 MM23:GATE A:87 6.57895 $l=0.0150 $w=0.0120 $lvl=12
R1_22 MM20:GATE A:83 6.57895 $l=0.0150 $w=0.0120 $lvl=12
R1_23 MM20:GATE A:82 6.57895 $l=0.0150 $w=0.0120 $lvl=12
R1_24 MM19:GATE A:78 6.57895 $l=0.0150 $w=0.0120 $lvl=12
R1_25 MM19:GATE A:77 6.57895 $l=0.0150 $w=0.0120 $lvl=12
R1_26 MM24:GATE A:91 6.57895 $l=0.0150 $w=0.0120 $lvl=11
R1_27 MM24:GATE A:90 6.57895 $l=0.0150 $w=0.0120 $lvl=11
R1_28 MM16:GATE A:73 6.57895 $l=0.0150 $w=0.0120 $lvl=12
R1_29 MM16:GATE A:72 6.57895 $l=0.0150 $w=0.0120 $lvl=12
R1_30 MM15:GATE A:68 6.57895 $l=0.0150 $w=0.0120 $lvl=12
R1_31 MM15:GATE A:67 6.57895 $l=0.0150 $w=0.0120 $lvl=12
R1_32 MM14:GATE A:63 6.57895 $l=0.0150 $w=0.0120 $lvl=12
R1_33 MM14:GATE A:62 6.57895 $l=0.0150 $w=0.0120 $lvl=12
R1_34 MM13:GATE A:58 6.57895 $l=0.0150 $w=0.0120 $lvl=12
R1_35 MM13:GATE A:57 6.57895 $l=0.0150 $w=0.0120 $lvl=12
R1_36 MM12:GATE A:53 6.57895 $l=0.0150 $w=0.0120 $lvl=12
R1_37 MM12:GATE A:52 6.57895 $l=0.0150 $w=0.0120 $lvl=12
R1_38 MM11:GATE A:48 6.57895 $l=0.0150 $w=0.0120 $lvl=12
R1_39 MM11:GATE A:47 6.57895 $l=0.0150 $w=0.0120 $lvl=12
R1_40 MM10:GATE A:43 6.57895 $l=0.0150 $w=0.0120 $lvl=12
R1_41 MM10:GATE A:42 6.57895 $l=0.0150 $w=0.0120 $lvl=12
R1_42 MM9:GATE A:38 6.57895 $l=0.0150 $w=0.0120 $lvl=12
R1_43 MM9:GATE A:37 6.57895 $l=0.0150 $w=0.0120 $lvl=12
R1_44 MM8:GATE A:33 6.57895 $l=0.0150 $w=0.0120 $lvl=12
R1_45 MM8:GATE A:32 6.57895 $l=0.0150 $w=0.0120 $lvl=12
R1_46 MM22:GATE A:86 6.57895 $l=0.0150 $w=0.0120 $lvl=11
R1_47 MM22:GATE A:85 6.57895 $l=0.0150 $w=0.0120 $lvl=11
R1_48 MM21:GATE A:81 6.57895 $l=0.0150 $w=0.0120 $lvl=11
R1_49 MM21:GATE A:80 6.57895 $l=0.0150 $w=0.0120 $lvl=11
R1_50 MM18:GATE A:76 6.57895 $l=0.0150 $w=0.0120 $lvl=11
R1_51 MM18:GATE A:75 6.57895 $l=0.0150 $w=0.0120 $lvl=11
R1_52 MM17:GATE A:71 6.57895 $l=0.0150 $w=0.0120 $lvl=11
R1_53 MM17:GATE A:70 6.57895 $l=0.0150 $w=0.0120 $lvl=11
R1_54 MM7:GATE A:66 6.57895 $l=0.0150 $w=0.0120 $lvl=11
R1_55 MM7:GATE A:65 6.57895 $l=0.0150 $w=0.0120 $lvl=11
R1_56 MM6:GATE A:61 6.57895 $l=0.0150 $w=0.0120 $lvl=11
R1_57 MM6:GATE A:60 6.57895 $l=0.0150 $w=0.0120 $lvl=11
R1_58 MM5:GATE A:56 6.57895 $l=0.0150 $w=0.0120 $lvl=11
R1_59 MM5:GATE A:55 6.57895 $l=0.0150 $w=0.0120 $lvl=11
R1_60 A:30 A:129 2.19298 $l=0.0050 $w=0.0120 $lvl=10
R1_61 A:31 A:102 6.57895 $l=0.0150 $w=0.0120 $lvl=10
R1_62 A:32 A:102 6.57895 $l=0.0150 $w=0.0120 $lvl=10
R1_63 A:33 A:34 2.19298 $l=0.0050 $w=0.0120 $lvl=10
R1_64 A:35 A:130 2.19298 $l=0.0050 $w=0.0120 $lvl=10
R1_65 A:36 A:104 6.57895 $l=0.0150 $w=0.0120 $lvl=10
R1_66 A:37 A:104 6.57895 $l=0.0150 $w=0.0120 $lvl=10
R1_67 A:38 A:39 2.19298 $l=0.0050 $w=0.0120 $lvl=10
R1_68 A:40 A:131 2.19298 $l=0.0050 $w=0.0120 $lvl=10
R1_69 A:41 A:106 6.57895 $l=0.0150 $w=0.0120 $lvl=10
R1_70 A:42 A:106 6.57895 $l=0.0150 $w=0.0120 $lvl=10
R1_71 A:43 A:44 2.19298 $l=0.0050 $w=0.0120 $lvl=10
R1_72 A:45 A:132 2.19298 $l=0.0050 $w=0.0120 $lvl=10
R1_73 A:46 A:108 6.57895 $l=0.0150 $w=0.0120 $lvl=10
R1_74 A:47 A:108 6.57895 $l=0.0150 $w=0.0120 $lvl=10
R1_75 A:48 A:49 2.19298 $l=0.0050 $w=0.0120 $lvl=10
R1_76 A:50 A:133 2.19298 $l=0.0050 $w=0.0120 $lvl=10
R1_77 A:51 A:110 6.57895 $l=0.0150 $w=0.0120 $lvl=10
R1_78 A:52 A:110 6.57895 $l=0.0150 $w=0.0120 $lvl=10
R1_79 A:53 A:54 2.19298 $l=0.0050 $w=0.0120 $lvl=10
R1_80 A:55 A:134 2.19298 $l=0.0050 $w=0.0120 $lvl=10
R1_81 A:56 A:112 6.57895 $l=0.0150 $w=0.0120 $lvl=10
R1_82 A:57 A:112 6.57895 $l=0.0150 $w=0.0120 $lvl=10
R1_83 A:58 A:59 2.19298 $l=0.0050 $w=0.0120 $lvl=10
R1_84 A:60 A:135 2.19298 $l=0.0050 $w=0.0120 $lvl=10
R1_85 A:61 A:114 6.57895 $l=0.0150 $w=0.0120 $lvl=10
R1_86 A:62 A:114 6.57895 $l=0.0150 $w=0.0120 $lvl=10
R1_87 A:63 A:64 2.19298 $l=0.0050 $w=0.0120 $lvl=10
R1_88 A:65 A:136 2.19298 $l=0.0050 $w=0.0120 $lvl=10
R1_89 A:66 A:116 6.57895 $l=0.0150 $w=0.0120 $lvl=10
R1_90 A:67 A:116 6.57895 $l=0.0150 $w=0.0120 $lvl=10
R1_91 A:68 A:69 2.19298 $l=0.0050 $w=0.0120 $lvl=10
R1_92 A:70 A:137 2.19298 $l=0.0050 $w=0.0120 $lvl=10
R1_93 A:71 A:118 6.57895 $l=0.0150 $w=0.0120 $lvl=10
R1_94 A:72 A:118 6.57895 $l=0.0150 $w=0.0120 $lvl=10
R1_95 A:73 A:74 2.19298 $l=0.0050 $w=0.0120 $lvl=10
R1_96 A:75 A:138 2.19298 $l=0.0050 $w=0.0120 $lvl=10
R1_97 A:76 A:120 6.57895 $l=0.0150 $w=0.0120 $lvl=10
R1_98 A:77 A:120 6.57895 $l=0.0150 $w=0.0120 $lvl=10
R1_99 A:78 A:79 2.19298 $l=0.0050 $w=0.0120 $lvl=10
R1_100 A:80 A:139 2.19298 $l=0.0050 $w=0.0120 $lvl=10
R1_101 A:81 A:122 6.57895 $l=0.0150 $w=0.0120 $lvl=10
R1_102 A:82 A:122 6.57895 $l=0.0150 $w=0.0120 $lvl=10
R1_103 A:83 A:84 2.19298 $l=0.0050 $w=0.0120 $lvl=10
R1_104 A:85 A:140 2.19298 $l=0.0050 $w=0.0120 $lvl=10
R1_105 A:86 A:124 6.57895 $l=0.0150 $w=0.0120 $lvl=10
R1_106 A:87 A:124 6.57895 $l=0.0150 $w=0.0120 $lvl=10
R1_107 A:88 A:89 2.19298 $l=0.0050 $w=0.0120 $lvl=10
R1_108 A:90 A:141 2.19298 $l=0.0050 $w=0.0120 $lvl=10
R1_109 A:91 A:100 6.57895 $l=0.0150 $w=0.0120 $lvl=10
R1_110 A:92 A:100 6.57895 $l=0.0150 $w=0.0120 $lvl=10
R1_111 A:93 A:94 2.19298 $l=0.0050 $w=0.0120 $lvl=10
R1_112 A:95 A:142 2.19298 $l=0.0050 $w=0.0120 $lvl=10
R1_113 A:96 A:143 6.57895 $l=0.0150 $w=0.0120 $lvl=10
R1_114 A:97 A:143 6.57895 $l=0.0150 $w=0.0120 $lvl=10
R1_115 A:98 A:99 2.19298 $l=0.0050 $w=0.0120 $lvl=10
R1_116 A:100 A:126 27.7339 $l=0.0210 $w=0.0120 $lvl=14
R1_117 A:101 A:102 63.5281 $a=0.00014400 $lvl=30
R1_118 A:101 A:103 14.5833 $l=0.0420 $w=0.0120 $lvl=9
R1_119 A:103 A:104 63.5281 $a=0.00014400 $lvl=30
R1_120 A:103 A:105 14.5833 $l=0.0420 $w=0.0120 $lvl=9
R1_121 A:105 A:106 63.5281 $a=0.00014400 $lvl=30
R1_122 A:105 A:107 14.5833 $l=0.0420 $w=0.0120 $lvl=9
R1_123 A:107 A:108 63.5281 $a=0.00014400 $lvl=30
R1_124 A:107 A:109 14.5833 $l=0.0420 $w=0.0120 $lvl=9
R1_125 A:109 A:110 63.5281 $a=0.00014400 $lvl=30
R1_126 A:109 A:111 14.5833 $l=0.0420 $w=0.0120 $lvl=9
R1_127 A:111 A:112 63.5281 $a=0.00014400 $lvl=30
R1_128 A:111 A:113 14.5833 $l=0.0420 $w=0.0120 $lvl=9
R1_129 A:113 A:114 63.5281 $a=0.00014400 $lvl=30
R1_130 A:113 A:115 14.5833 $l=0.0420 $w=0.0120 $lvl=9
R1_131 A:115 A:116 63.5281 $a=0.00014400 $lvl=30
R1_132 A:115 A:117 14.5833 $l=0.0420 $w=0.0120 $lvl=9
R1_133 A:117 A:118 63.5281 $a=0.00014400 $lvl=30
R1_134 A:117 A:119 14.5833 $l=0.0420 $w=0.0120 $lvl=9
R1_135 A:119 A:120 63.5281 $a=0.00014400 $lvl=30
R1_136 A:119 A:121 14.5833 $l=0.0420 $w=0.0120 $lvl=9
R1_137 A:121 A:122 63.5281 $a=0.00014400 $lvl=30
R1_138 A:121 A:123 14.5833 $l=0.0420 $w=0.0120 $lvl=9
R1_139 A:123 A:124 63.5281 $a=0.00014400 $lvl=30
R1_140 A:123 A:125 21.875 $l=0.0630 $w=0.0120 $lvl=9
R1_141 A:125 A:126 63.5281 $a=0.00014400 $lvl=30
R1_142 A:125 A:127 2.08333 $l=0.0060 $w=0.0120 $lvl=9
R1_143 A:126 A:143 27.7339 $l=0.0210 $w=0.0120 $lvl=14

*|NET VSS 0.000168448PF
*|P (VSS B 0 0.2730 0.0000) // $llx=0.2670 $lly=-0.0060 $urx=0.2790 $ury=0.0060 $lvl=33
*|I (MM27:SRC MM27 SRC B 0 0.5940 0.0300) // $llx=0.5940 $lly=0.0300 $urx=0.5940 $ury=0.0300 $lvl=16
*|I (MM4:SRC MM4 SRC B 0 0.2040 0.0300) // $llx=0.2040 $lly=0.0300 $urx=0.2040 $ury=0.0300 $lvl=16
*|I (MM3:SRC MM3 SRC B 0 0.1740 0.0300) // $llx=0.1740 $lly=0.0300 $urx=0.1740 $ury=0.0300 $lvl=16
*|I (MM2:SRC MM2 SRC B 0 0.1200 0.0300) // $llx=0.1200 $lly=0.0300 $urx=0.1200 $ury=0.0300 $lvl=16
*|I (MM1:SRC MM1 SRC B 0 0.0900 0.0300) // $llx=0.0900 $lly=0.0300 $urx=0.0900 $ury=0.0300 $lvl=16
*|I (MM0:SRC MM0 SRC B 0 0.0360 0.0300) // $llx=0.0360 $lly=0.0300 $urx=0.0360 $ury=0.0300 $lvl=16
*|I (MM24:BULK MM24 BULK B 0 0.5460 0.0300) // $llx=0.5460 $lly=0.0300 $urx=0.5460 $ury=0.0300 $lvl=20
*|I (MM24:SRC MM24 SRC B 0 0.5400 0.0300) // $llx=0.5400 $lly=0.0300 $urx=0.5400 $ury=0.0300 $lvl=16
*|I (MM22:SRC MM22 SRC B 0 0.5100 0.0300) // $llx=0.5100 $lly=0.0300 $urx=0.5100 $ury=0.0300 $lvl=16
*|I (MM21:SRC MM21 SRC B 0 0.4560 0.0300) // $llx=0.4560 $lly=0.0300 $urx=0.4560 $ury=0.0300 $lvl=16
*|I (MM18:SRC MM18 SRC B 0 0.4260 0.0300) // $llx=0.4260 $lly=0.0300 $urx=0.4260 $ury=0.0300 $lvl=16
*|I (MM17:SRC MM17 SRC B 0 0.3720 0.0300) // $llx=0.3720 $lly=0.0300 $urx=0.3720 $ury=0.0300 $lvl=16
*|I (MM7:SRC MM7 SRC B 0 0.3420 0.0300) // $llx=0.3420 $lly=0.0300 $urx=0.3420 $ury=0.0300 $lvl=16
*|I (MM6:SRC MM6 SRC B 0 0.2880 0.0300) // $llx=0.2880 $lly=0.0300 $urx=0.2880 $ury=0.0300 $lvl=16
*|I (MM5:SRC MM5 SRC B 0 0.2580 0.0300) // $llx=0.2580 $lly=0.0300 $urx=0.2580 $ury=0.0300 $lvl=16
*|I (MM24:BULK MM27 BULK B 0 0.5880 0.0300) // $llx=0.5880 $lly=0.0300 $urx=0.5880 $ury=0.0300 $lvl=20
*|I (MM24:BULK MM4 BULK B 0 0.2100 0.0300) // $llx=0.2100 $lly=0.0300 $urx=0.2100 $ury=0.0300 $lvl=20
*|I (MM24:BULK MM3 BULK B 0 0.1680 0.0300) // $llx=0.1680 $lly=0.0300 $urx=0.1680 $ury=0.0300 $lvl=20
*|I (MM24:BULK MM2 BULK B 0 0.1260 0.0300) // $llx=0.1260 $lly=0.0300 $urx=0.1260 $ury=0.0300 $lvl=20
*|I (MM24:BULK MM1 BULK B 0 0.0840 0.0300) // $llx=0.0840 $lly=0.0300 $urx=0.0840 $ury=0.0300 $lvl=20
*|I (MM24:BULK MM0 BULK B 0 0.0420 0.0300) // $llx=0.0420 $lly=0.0300 $urx=0.0420 $ury=0.0300 $lvl=20
*|I (MM24:BULK MM22 BULK B 0 0.5040 0.0300) // $llx=0.5040 $lly=0.0300 $urx=0.5040 $ury=0.0300 $lvl=20
*|I (MM24:BULK MM21 BULK B 0 0.4620 0.0300) // $llx=0.4620 $lly=0.0300 $urx=0.4620 $ury=0.0300 $lvl=20
*|I (MM24:BULK MM18 BULK B 0 0.4200 0.0300) // $llx=0.4200 $lly=0.0300 $urx=0.4200 $ury=0.0300 $lvl=20
*|I (MM24:BULK MM17 BULK B 0 0.3780 0.0300) // $llx=0.3780 $lly=0.0300 $urx=0.3780 $ury=0.0300 $lvl=20
*|I (MM24:BULK MM7 BULK B 0 0.3360 0.0300) // $llx=0.3360 $lly=0.0300 $urx=0.3360 $ury=0.0300 $lvl=20
*|I (MM24:BULK MM6 BULK B 0 0.2940 0.0300) // $llx=0.2940 $lly=0.0300 $urx=0.2940 $ury=0.0300 $lvl=20
*|I (MM24:BULK MM5 BULK B 0 0.2520 0.0300) // $llx=0.2520 $lly=0.0300 $urx=0.2520 $ury=0.0300 $lvl=20
*|S (VSS:17 0.0210 0.0150) // $llx=0.0110 $lly=0.0150 $urx=0.0310 $ury=0.0150 $lvl=15
*|S (VSS:18 0.1050 0.0150) // $llx=0.0950 $lly=0.0150 $urx=0.1150 $ury=0.0150 $lvl=15
*|S (VSS:19 0.1890 0.0150) // $llx=0.1790 $lly=0.0150 $urx=0.1990 $ury=0.0150 $lvl=15
*|S (VSS:20 0.2730 0.0150) // $llx=0.2630 $lly=0.0150 $urx=0.2830 $ury=0.0150 $lvl=15
*|S (VSS:21 0.3570 0.0150) // $llx=0.3470 $lly=0.0150 $urx=0.3670 $ury=0.0150 $lvl=15
*|S (VSS:22 0.4410 0.0150) // $llx=0.4310 $lly=0.0150 $urx=0.4510 $ury=0.0150 $lvl=15
*|S (VSS:23 0.5250 0.0150) // $llx=0.5150 $lly=0.0150 $urx=0.5350 $ury=0.0150 $lvl=15
*|S (VSS:24 0.6090 0.0150) // $llx=0.5990 $lly=0.0150 $urx=0.6190 $ury=0.0150 $lvl=15
*|S (VSS:25 0.0210 0.0000) // $llx=0.0150 $lly=-0.0060 $urx=0.0270 $ury=0.0060 $lvl=9
*|S (VSS:26 0.0210 0.0000) // $llx=0.0110 $lly=-0.0060 $urx=0.0310 $ury=0.0060 $lvl=13
*|S (VSS:27 0.0630 0.0000) // $llx=0.0570 $lly=-0.0060 $urx=0.0690 $ury=0.0060 $lvl=9
*|S (VSS:28 0.0630 0.0000) // $llx=0.0570 $lly=-0.0060 $urx=0.0690 $ury=0.0060 $lvl=14
*|S (VSS:29 0.1050 0.0000) // $llx=0.0990 $lly=-0.0060 $urx=0.1110 $ury=0.0060 $lvl=9
*|S (VSS:30 0.1050 0.0000) // $llx=0.0950 $lly=-0.0060 $urx=0.1150 $ury=0.0060 $lvl=13
*|S (VSS:31 0.1470 0.0000) // $llx=0.1410 $lly=-0.0060 $urx=0.1530 $ury=0.0060 $lvl=9
*|S (VSS:32 0.1470 0.0000) // $llx=0.1410 $lly=-0.0060 $urx=0.1530 $ury=0.0060 $lvl=14
*|S (VSS:33 0.1890 0.0000) // $llx=0.1830 $lly=-0.0060 $urx=0.1950 $ury=0.0060 $lvl=9
*|S (VSS:34 0.1890 0.0000) // $llx=0.1790 $lly=-0.0060 $urx=0.1990 $ury=0.0060 $lvl=13
*|S (VSS:35 0.2310 0.0000) // $llx=0.2250 $lly=-0.0060 $urx=0.2370 $ury=0.0060 $lvl=9
*|S (VSS:36 0.2310 0.0000) // $llx=0.2250 $lly=-0.0060 $urx=0.2370 $ury=0.0060 $lvl=14
*|S (VSS:37 0.2730 0.0000) // $llx=0.2630 $lly=-0.0060 $urx=0.2830 $ury=0.0060 $lvl=13
*|S (VSS:38 0.3150 0.0000) // $llx=0.3090 $lly=-0.0060 $urx=0.3210 $ury=0.0060 $lvl=9
*|S (VSS:39 0.3150 0.0000) // $llx=0.3090 $lly=-0.0060 $urx=0.3210 $ury=0.0060 $lvl=14
*|S (VSS:40 0.3570 0.0000) // $llx=0.3510 $lly=-0.0060 $urx=0.3630 $ury=0.0060 $lvl=9
*|S (VSS:41 0.3570 0.0000) // $llx=0.3470 $lly=-0.0060 $urx=0.3670 $ury=0.0060 $lvl=13
*|S (VSS:42 0.3990 0.0000) // $llx=0.3930 $lly=-0.0060 $urx=0.4050 $ury=0.0060 $lvl=9
*|S (VSS:43 0.3990 0.0000) // $llx=0.3930 $lly=-0.0060 $urx=0.4050 $ury=0.0060 $lvl=14
*|S (VSS:44 0.4410 0.0000) // $llx=0.4350 $lly=-0.0060 $urx=0.4470 $ury=0.0060 $lvl=9
*|S (VSS:45 0.4410 0.0000) // $llx=0.4310 $lly=-0.0060 $urx=0.4510 $ury=0.0060 $lvl=13
*|S (VSS:46 0.4830 0.0000) // $llx=0.4770 $lly=-0.0060 $urx=0.4890 $ury=0.0060 $lvl=9
*|S (VSS:47 0.4830 0.0000) // $llx=0.4770 $lly=-0.0060 $urx=0.4890 $ury=0.0060 $lvl=14
*|S (VSS:48 0.5250 0.0000) // $llx=0.5190 $lly=-0.0060 $urx=0.5310 $ury=0.0060 $lvl=9
*|S (VSS:49 0.5250 0.0000) // $llx=0.5150 $lly=-0.0060 $urx=0.5350 $ury=0.0060 $lvl=13
*|S (VSS:50 0.5670 0.0000) // $llx=0.5610 $lly=-0.0060 $urx=0.5730 $ury=0.0060 $lvl=9