*
*|DSPF 1.3
*|DESIGN NOR3x2
*|DATE "Tue Oct 15 21:11:35 2024"
*|VENDOR "Synopsys"
*|PROGRAM "StarRC"
*|VERSION "V-2023.12-SP5"
*|DIVIDER .
*|DELIMITER :
**FORMAT SPF
*

** COMMENTS

** OPERATING_TEMPERATURE 25
** GLOBAL_TEMPERATURE 25
** 
** TCAD_GRD_FILE /home/gtcad/ctsai314/ITF_Modification/0_reference/3nm_FF_noBPR.nxtgrd
**   TCAD_TIME_STAMP Tue Sep 3 21:56:12 2024
**   TCADGRD_VERSION 89

.SUBCKT NOR3x2 A B C VDD VSS Y

*|GROUND_NET 0

*LAYER_MAP

*0 SUBSTRATE
*1 m9    ITF=M9
*2 m8    ITF=M8
*3 m7    ITF=M7
*4 m6    ITF=M6
*5 m5    ITF=M5
*6 m4    ITF=M4
*7 m3    ITF=M3
*8 m2    ITF=M2
*9 m1    ITF=M1
*10 fpoly    ITF=Gate
*11 ngate    ITF=Gate
*12 pgate    ITF=Gate
*13 lisd    ITF=LISD
*14 lig    ITF=LIG
*15 sdt    ITF=SDT
*16 nsd    ITF=Active
*17 psd    ITF=Active
*18 pselect    ITF=Active
*19 well    ITF=Active
*20 sub    ITF=Active
*21 nselect    ITF=Active
*22 v8    ITF=V8
*23 v7    ITF=V7
*24 v6    ITF=V6
*25 v5    ITF=V5
*26 v4    ITF=V4
*27 v3    ITF=V3
*28 v2    ITF=V2
*29 v1    ITF=V1
*30 v0lig    ITF=V0LIG
*31 v0lisd    ITF=V0LISD
*32 well_pin    ITF=Active
*33 M1_pin    ITF=M1
*34 M2_pin    ITF=M2
*35 M3_pin    ITF=M3
*36 M4_pin    ITF=M4
*37 M5_pin    ITF=M5
*38 M6_pin    ITF=M6
*39 M7_pin    ITF=M7
*40 M8_pin    ITF=M8
*41 M9_pin    ITF=M9

*|NET B 3.23455e-05PF
*|P (B B 0 0.1680 0.0480) // $llx=0.1670 $lly=0.0470 $urx=0.1690 $ury=0.0490 $lvl=33
*|I (MM1:GATE MM1 GATE I 3.6e-19 0.1260 0.0900) // $llx=0.1260 $lly=0.0900 $urx=0.1260 $ury=0.0900 $lvl=12
*|I (MM4:GATE MM4 GATE I 3.6e-19 0.2100 0.0300) // $llx=0.2100 $lly=0.0300 $urx=0.2100 $ury=0.0300 $lvl=11
*|I (MM10:GATE MM10 GATE I 3.6e-19 0.1260 0.0300) // $llx=0.1260 $lly=0.0300 $urx=0.1260 $ury=0.0300 $lvl=11
*|I (MM6:GATE MM6 GATE I 3.6e-19 0.2100 0.0900) // $llx=0.2100 $lly=0.0900 $urx=0.2100 $ury=0.0900 $lvl=12
*|S (B:6 0.1260 0.0150) // $llx=0.1200 $lly=0.0150 $urx=0.1320 $ury=0.0150 $lvl=10
*|S (B:7 0.1260 0.0450) // $llx=0.1200 $lly=0.0450 $urx=0.1320 $ury=0.0450 $lvl=11
*|S (B:8 0.1260 0.0750) // $llx=0.1200 $lly=0.0750 $urx=0.1320 $ury=0.0750 $lvl=10
*|S (B:9 0.1260 0.1050) // $llx=0.1200 $lly=0.1050 $urx=0.1320 $ury=0.1050 $lvl=12
*|S (B:10 0.1260 0.1100) // $llx=0.1200 $lly=0.1100 $urx=0.1320 $ury=0.1100 $lvl=10
*|S (B:11 0.2100 0.0150) // $llx=0.2040 $lly=0.0150 $urx=0.2160 $ury=0.0150 $lvl=10
*|S (B:12 0.2100 0.0750) // $llx=0.2040 $lly=0.0750 $urx=0.2160 $ury=0.0750 $lvl=10
*|S (B:13 0.2100 0.1050) // $llx=0.2040 $lly=0.1050 $urx=0.2160 $ury=0.1050 $lvl=12
*|S (B:14 0.2100 0.1100) // $llx=0.2040 $lly=0.1100 $urx=0.2160 $ury=0.1100 $lvl=10
*|S (B:15 0.1260 0.0600) // $llx=0.1200 $lly=0.0540 $urx=0.1320 $ury=0.0660 $lvl=9
*|S (B:16 0.1260 0.0600) // $llx=0.1200 $lly=0.0540 $urx=0.1320 $ury=0.0660 $lvl=10
*|S (B:17 0.2100 0.0480) // $llx=0.2040 $lly=0.0420 $urx=0.2160 $ury=0.0540 $lvl=9
*|S (B:18 0.2100 0.0480) // $llx=0.2040 $lly=0.0420 $urx=0.2160 $ury=0.0540 $lvl=10
*|S (B:19 0.1260 0.0480) // $llx=0.1200 $lly=0.0420 $urx=0.1320 $ury=0.0540 $lvl=9
*|S (B:20 0.1260 0.0780) // $llx=0.1200 $lly=0.0780 $urx=0.1320 $ury=0.0780 $lvl=9
*|S (B:21 0.1260 0.0100) // $llx=0.1200 $lly=0.0100 $urx=0.1320 $ury=0.0100 $lvl=10
*|S (B:22 0.2100 0.0100) // $llx=0.2040 $lly=0.0100 $urx=0.2160 $ury=0.0100 $lvl=10
*|S (B:23 0.2160 0.0480) // $llx=0.2160 $lly=0.0420 $urx=0.2160 $ury=0.0540 $lvl=9
Cg1_1 B:6 0 6.11935e-20
Cg1_2 B:7 0 2.43715e-19
Cg1_3 B:8 0 2.7019e-19
Cg1_4 B:9 0 3.68393e-19
Cg1_5 B:10 0 1.74064e-19
Cg1_6 B:11 0 4.06191e-20
Cg1_7 B:12 0 2.73484e-19
Cg1_8 B:13 0 3.68393e-19
Cg1_9 B:14 0 1.74064e-19
Cg1_10 B:16 0 7.25726e-20
Cg1_11 B:18 0 2.86523e-19
Cg1_12 B:19 0 1.29261e-18
Cg1_13 B:20 0 4.75908e-19
R1_1 B B:17 14.5833 $l=0.0420 $w=0.0120 $lvl=9
R1_2 B B:19 14.5833 $l=0.0420 $w=0.0120 $lvl=9
R1_3 MM1:GATE B:9 6.57895 $l=0.0150 $w=0.0120 $lvl=12
R1_4 MM1:GATE B:8 6.57895 $l=0.0150 $w=0.0120 $lvl=12
R1_5 MM4:GATE B:18 6.57895 $l=0.0180 $w=0.0120 $lvl=11
R1_6 MM4:GATE B:11 6.57895 $l=0.0150 $w=0.0120 $lvl=11
R1_7 MM10:GATE B:7 6.57895 $l=0.0150 $w=0.0120 $lvl=11
R1_8 MM10:GATE B:6 6.57895 $l=0.0150 $w=0.0120 $lvl=11
R1_9 MM6:GATE B:13 6.57895 $l=0.0150 $w=0.0120 $lvl=12
R1_10 MM6:GATE B:12 6.57895 $l=0.0150 $w=0.0120 $lvl=12
R1_11 B:6 B:21 2.19298 $l=0.0050 $w=0.0120 $lvl=10
R1_12 B:7 B:16 6.57895 $l=0.0150 $w=0.0120 $lvl=10
R1_13 B:8 B:16 6.57895 $l=0.0150 $w=0.0120 $lvl=10
R1_14 B:9 B:10 2.19298 $l=0.0050 $w=0.0120 $lvl=10
R1_15 B:11 B:22 2.19298 $l=0.0050 $w=0.0120 $lvl=10
R1_16 B:12 B:18 11.8421 $l=0.0270 $w=0.0120 $lvl=10
R1_17 B:13 B:14 2.19298 $l=0.0050 $w=0.0120 $lvl=10
R1_18 B:15 B:16 63.5281 $a=0.00014400 $lvl=30
R1_19 B:15 B:19 4.16667 $l=0.0120 $w=0.0120 $lvl=9
R1_20 B:15 B:20 6.25 $l=0.0180 $w=0.0120 $lvl=9
R1_21 B:17 B:18 63.5281 $a=0.00014400 $lvl=30
R1_22 B:17 B:23 2.08333 $l=0.0060 $w=0.0120 $lvl=9

*|NET C 3.31958e-05PF
*|P (C B 0 0.2100 0.0720) // $llx=0.2090 $lly=0.0710 $urx=0.2110 $ury=0.0730 $lvl=33
*|I (MM5:GATE MM5 GATE I 3.6e-19 0.2520 0.0300) // $llx=0.2520 $lly=0.0300 $urx=0.2520 $ury=0.0300 $lvl=11
*|I (MM11:GATE MM11 GATE I 3.6e-19 0.1680 0.0300) // $llx=0.1680 $lly=0.0300 $urx=0.1680 $ury=0.0300 $lvl=11
*|I (MM7:GATE MM7 GATE I 3.6e-19 0.2520 0.0900) // $llx=0.2520 $lly=0.0900 $urx=0.2520 $ury=0.0900 $lvl=12
*|I (MM2:GATE MM2 GATE I 3.6e-19 0.1680 0.0900) // $llx=0.1680 $lly=0.0900 $urx=0.1680 $ury=0.0900 $lvl=12
*|S (C:6 0.1680 0.0150) // $llx=0.1620 $lly=0.0150 $urx=0.1740 $ury=0.0150 $lvl=10
*|S (C:7 0.1680 0.0450) // $llx=0.1620 $lly=0.0450 $urx=0.1740 $ury=0.0450 $lvl=11
*|S (C:8 0.1680 0.1050) // $llx=0.1620 $lly=0.1050 $urx=0.1740 $ury=0.1050 $lvl=12
*|S (C:9 0.1680 0.1100) // $llx=0.1620 $lly=0.1100 $urx=0.1740 $ury=0.1100 $lvl=10
*|S (C:10 0.2520 0.0150) // $llx=0.2460 $lly=0.0150 $urx=0.2580 $ury=0.0150 $lvl=10
*|S (C:11 0.2520 0.0450) // $llx=0.2460 $lly=0.0450 $urx=0.2580 $ury=0.0450 $lvl=11
*|S (C:12 0.2520 0.0750) // $llx=0.2460 $lly=0.0750 $urx=0.2580 $ury=0.0750 $lvl=10
*|S (C:13 0.2520 0.1050) // $llx=0.2460 $lly=0.1050 $urx=0.2580 $ury=0.1050 $lvl=12
*|S (C:14 0.2520 0.1100) // $llx=0.2460 $lly=0.1100 $urx=0.2580 $ury=0.1100 $lvl=10
*|S (C:15 0.2520 0.0600) // $llx=0.2460 $lly=0.0540 $urx=0.2580 $ury=0.0660 $lvl=10
*|S (C:16 0.1680 0.0720) // $llx=0.1620 $lly=0.0660 $urx=0.1740 $ury=0.0780 $lvl=9
*|S (C:17 0.1680 0.0720) // $llx=0.1620 $lly=0.0660 $urx=0.1740 $ury=0.0780 $lvl=10
*|S (C:18 0.2410 0.0600) // $llx=0.2350 $lly=0.0540 $urx=0.2470 $ury=0.0660 $lvl=9
*|S (C:19 0.2410 0.0600) // $llx=0.2350 $lly=0.0540 $urx=0.2470 $ury=0.0660 $lvl=14
*|S (C:20 0.2410 0.0720) // $llx=0.2350 $lly=0.0660 $urx=0.2470 $ury=0.0780 $lvl=9
*|S (C:21 0.2410 0.0420) // $llx=0.2350 $lly=0.0420 $urx=0.2470 $ury=0.0420 $lvl=9
*|S (C:22 0.1680 0.0100) // $llx=0.1620 $lly=0.0100 $urx=0.1740 $ury=0.0100 $lvl=10
*|S (C:23 0.2520 0.0100) // $llx=0.2460 $lly=0.0100 $urx=0.2580 $ury=0.0100 $lvl=10
*|S (C:24 0.2350 0.0600) // $llx=0.2350 $lly=0.0540 $urx=0.2350 $ury=0.0660 $lvl=14
*|S (C:25 0.1620 0.0720) // $llx=0.1620 $lly=0.0660 $urx=0.1620 $ury=0.0780 $lvl=9
C2_1 C:20 B:12 8.29881e-20
C2_2 C:20 B:13 8.63472e-21
C2_3 C:20 B:18 3.46717e-20
C2_4 C:7 B:19 3.45389e-20
C2_5 C:20 B:19 5.20861e-18
C2_6 C:21 B:19 1.41784e-18
C2_7 C:20 B:20 1.04423e-18
C2_8 C:21 B:20 8.33069e-20
Cg2_9 C:6 0 6.11935e-20
Cg2_10 C:7 0 5.17198e-19
Cg2_11 C:8 0 3.68393e-19
Cg2_12 C:9 0 1.74064e-19
Cg2_13 C:10 0 3.64468e-19
Cg2_14 C:11 0 2.43715e-19
Cg2_15 C:12 0 2.43715e-19
Cg2_16 C:13 0 2.43715e-19
Cg2_17 C:14 0 1.74064e-19
Cg2_18 C:15 0 1.1261e-19
Cg2_19 C:17 0 1.21678e-19
Cg2_20 C:20 0 1.08441e-18
Cg2_21 C:21 0 4.44604e-19
R2_1 C C:20 10.7639 $l=0.0310 $w=0.0120 $lvl=9
R2_2 C C:16 14.5833 $l=0.0420 $w=0.0120 $lvl=9
R2_3 MM5:GATE C:11 6.57895 $l=0.0150 $w=0.0120 $lvl=11
R2_4 MM5:GATE C:10 6.57895 $l=0.0150 $w=0.0120 $lvl=11
R2_5 MM11:GATE C:7 6.57895 $l=0.0150 $w=0.0120 $lvl=11
R2_6 MM11:GATE C:6 6.57895 $l=0.0150 $w=0.0120 $lvl=11
R2_7 MM7:GATE C:13 6.57895 $l=0.0150 $w=0.0120 $lvl=12
R2_8 MM7:GATE C:12 6.57895 $l=0.0150 $w=0.0120 $lvl=12
R2_9 MM2:GATE C:8 6.57895 $l=0.0150 $w=0.0120 $lvl=12
R2_10 MM2:GATE C:17 7.89474 $l=0.0180 $w=0.0120 $lvl=12
R2_11 C:6 C:22 2.19298 $l=0.0050 $w=0.0120 $lvl=10
R2_12 C:7 C:17 11.8421 $l=0.0270 $w=0.0120 $lvl=10
R2_13 C:8 C:9 2.19298 $l=0.0050 $w=0.0120 $lvl=10
R2_14 C:10 C:23 2.19298 $l=0.0050 $w=0.0120 $lvl=10
R2_15 C:11 C:15 6.57895 $l=0.0150 $w=0.0120 $lvl=10
R2_16 C:12 C:15 6.57895 $l=0.0150 $w=0.0120 $lvl=10
R2_17 C:13 C:14 2.19298 $l=0.0050 $w=0.0120 $lvl=10
R2_18 C:15 C:19 14.5273 $l=0.0110 $w=0.0120 $lvl=14
R2_19 C:16 C:17 63.5281 $a=0.00014400 $lvl=30
R2_20 C:16 C:25 2.08333 $l=0.0060 $w=0.0120 $lvl=9
R2_21 C:18 C:19 63.5281 $a=0.00014400 $lvl=30
R2_22 C:18 C:21 6.25 $l=0.0180 $w=0.0120 $lvl=9
R2_23 C:18 C:20 4.16667 $l=0.0120 $w=0.0120 $lvl=9
R2_24 C:19 C:24 7.92396 $l=0.0060 $w=0.0120 $lvl=14

*|NET VSS 8.0126e-05PF
*|P (VSS B 0 0.1470 0.0000) // $llx=0.1410 $lly=-0.0060 $urx=0.1530 $ury=0.0060 $lvl=33
*|I (MM5:SRC MM5 SRC B 0 0.2460 0.0300) // $llx=0.2460 $lly=0.0300 $urx=0.2460 $ury=0.0300 $lvl=16
*|I (MM4:SRC MM4 SRC B 0 0.2160 0.0300) // $llx=0.2160 $lly=0.0300 $urx=0.2160 $ury=0.0300 $lvl=16
*|I (MM11:SRC MM11 SRC B 0 0.1620 0.0300) // $llx=0.1620 $lly=0.0300 $urx=0.1620 $ury=0.0300 $lvl=16
*|I (MM10:SRC MM10 SRC B 0 0.1320 0.0300) // $llx=0.1320 $lly=0.0300 $urx=0.1320 $ury=0.0300 $lvl=16
*|I (MM3:SRC MM3 SRC B 0 0.0780 0.0300) // $llx=0.0780 $lly=0.0300 $urx=0.0780 $ury=0.0300 $lvl=16
*|I (MM9:BULK MM9 BULK B 0 0.0420 0.0300) // $llx=0.0420 $lly=0.0300 $urx=0.0420 $ury=0.0300 $lvl=20
*|I (MM9:SRC MM9 SRC B 0 0.0480 0.0300) // $llx=0.0480 $lly=0.0300 $urx=0.0480 $ury=0.0300 $lvl=16
*|I (MM9:BULK MM5 BULK B 0 0.2520 0.0300) // $llx=0.2520 $lly=0.0300 $urx=0.2520 $ury=0.0300 $lvl=20
*|I (MM9:BULK MM4 BULK B 0 0.2100 0.0300) // $llx=0.2100 $lly=0.0300 $urx=0.2100 $ury=0.0300 $lvl=20
*|I (MM9:BULK MM11 BULK B 0 0.1680 0.0300) // $llx=0.1680 $lly=0.0300 $urx=0.1680 $ury=0.0300 $lvl=20
*|I (MM9:BULK MM10 BULK B 0 0.1260 0.0300) // $llx=0.1260 $lly=0.0300 $urx=0.1260 $ury=0.0300 $lvl=20
*|I (MM9:BULK MM3 BULK B 0 0.0840 0.0300) // $llx=0.0840 $lly=0.0300 $urx=0.0840 $ury=0.0300 $lvl=20
*|S (VSS:9 0.0630 0.0150) // $llx=0.0530 $lly=0.0150 $urx=0.0730 $ury=0.0150 $lvl=15
*|S (VSS:10 0.1470 0.0150) // $llx=0.1370 $lly=0.0150 $urx=0.1570 $ury=0.0150 $lvl=15
*|S (VSS:11 0.2310 0.0150) // $llx=0.2210 $lly=0.0150 $urx=0.2410 $ury=0.0150 $lvl=15
*|S (VSS:12 0.0210 0.0000) // $llx=0.0150 $lly=-0.0060 $urx=0.0270 $ury=0.0060 $lvl=9
*|S (VSS:13 0.0210 0.0000) // $llx=0.0150 $lly=-0.0060 $urx=0.0270 $ury=0.0060 $lvl=14
*|S (VSS:14 0.0630 0.0000) // $llx=0.0570 $lly=-0.0060 $urx=0.0690 $ury=0.0060 $lvl=9
*|S (VSS:15 0.1050 0.0000) // $llx=0.0990 $lly=-0.0060 $urx=0.1110 $ury=0.0060 $lvl=9
*|S (VSS:16 0.1050 0.0000) // $llx=0.0990 $lly=-0.0060 $urx=0.1110 $ury=0.0060 $lvl=14
*|S (VSS:17 0.1890 0.0000) // $llx=0.1830 $lly=-0.0060 $urx=0.1950 $ury=0.0060 $lvl=9
*|S (VSS:18 0.1890 0.0000) // $llx=0.1830 $lly=-0.0060 $urx=0.1950 $ury=0.0060 $lvl=14
*|S (VSS:19 0.2310 0.0000) // $llx=0.2250 $lly=-0.0060 $urx=0.2370 $ury=0.0060 $lvl=9
*|S (VSS:20 0.2310 0.0000) // $llx=0.2210 $lly=-0.0060 $urx=0.2410 $ury=0.0060 $lvl=13
*|S (VSS:21 0.2730 0.0000) // $llx=0.2670 $lly=-0.0060 $urx=0.2790 $ury=0.0060 $lvl=9
*|S (VSS:22 0.2730 0.0000) // $llx=0.2670 $lly=-0.0060 $urx=0.2790 $ury=0.0060 $lvl=14
*|S (VSS:23 0.0630 0.0450) // $llx=0.0530 $lly=0.0450 $urx=0.0730 $ury=0.0450 $lvl=15
*|S (VSS:24 0.1470 0.0450) // $llx=0.1370 $lly=0.0450 $urx=0.1570 $ury=0.0450 $lvl=15
*|S (VSS:25 0.2310 0.0450) // $llx=0.2210 $lly=0.0450 $urx=0.2410 $ury=0.0450 $lvl=15
*|S (VSS:26 -0.0090 0.0000) // $llx=-0.0090 $lly=-0.0060 $urx=-0.0090 $ury=0.0060 $lvl=9
*|S (VSS:27 0.1470 0.0000) // $llx=0.1370 $lly=-0.0060 $urx=0.1570 $ury=0.0060 $lvl=14
*|S (VSS:28 0.0630 0.0000) // $llx=0.0530 $lly=-0.0060 $urx=0.0730 $ury=0.0060 $lvl=14
*|S (VSS:29 -0.0090 0.0000) // $llx=-0.0090 $lly=-0.0060 $urx=-0.0090 $ury=0.0060 $lvl=14
*|S (VSS:30 0.3030 0.0000) // $llx=0.3030 $lly=-0.0060 $urx=0.3030 $ury=0.0060 $lvl=14
*|S (VSS:31 0.0630 0.0300) // $llx=0.0530 $lly=0.0300 $urx=0.0730 $ury=0.0300 $lvl=15
*|S (VSS:32 0.1470 0.0300) // $llx=0.1370 $lly=0.0300 $urx=0.1570 $ury=0.0300 $lvl=15
*|S (VSS:33 0.2310 0.0300) // $llx=0.2210 $lly=0.0300 $urx=0.2410 $ury=0.0300 $lvl=15
*|S (VSS:34 0.3030 0.0000) // $llx=0.3030 $lly=-0.0060 $urx=0.3030 $ury=0.0060 $lvl=9
C3_1 VSS:20 B:8 4.30793e-20
C3_2 VSS:20 B:11 5.3734e-19
C3_3 VSS:20 B:16 3.78951e-21
C3_4 VSS:20 B:18 9.26205e-21
C3_5 MM9:BULK B:19 3.88965e-19
C3_6 VSS:9 B:19 4.90114e-20
C3_7 VSS:10 B:19 3.78079e-20
C3_8 VSS:24 B:19 3.99757e-20
C3_9 VSS:25 B:19 9.42637e-21
C3_10 VSS:26 B:19 7.04107e-19
C3_11 VSS:27 B:19 7.53743e-20
C3_12 VSS:28 B:19 5.40621e-20
C3_13 MM9:BULK B:20 2.87778e-19
C3_14 VSS:20 C:7 4.33548e-20
C3_15 VSS:20 C:10 5.3734e-19
C3_16 VSS:26 C:10 1.05239e-20
C3_17 VSS:11 C:11 1.69884e-18
C3_18 VSS:20 C:11 6.95059e-19
C3_19 MM9:BULK C:20 2.47891e-19
C3_20 VSS:26 C:20 4.52713e-20
C3_21 MM9:BULK C:21 1.65793e-19
C3_22 VSS:11 C:21 4.88111e-20
C3_23 VSS:20 C:21 8.83843e-20
C3_24 VSS:25 C:21 1.68729e-20
C3_25 VSS:26 C:21 1.68694e-19
Cg3_26 MM9:BULK 0 1.09474e-17
Cg3_27 VSS:9 0 2.33716e-19
Cg3_28 VSS:10 0 2.55569e-19
Cg3_29 VSS:11 0 2.65365e-19
Cg3_30 VSS:20 0 3.23409e-18
Cg3_31 VSS:23 0 6.21225e-19
Cg3_32 VSS:24 0 6.16144e-19
Cg3_33 VSS:25 0 6.15817e-19
Cg3_34 VSS:26 0 8.58556e-18
Cg3_35 VSS:27 0 3.20759e-19
Cg3_36 VSS:28 0 3.00268e-19
R3_1 VSS VSS:15 14.5833 $l=0.0420 $w=0.0120 $lvl=9
R3_2 VSS VSS:17 14.5833 $l=0.0420 $w=0.0120 $lvl=9
R3_3 VSS VSS:27 31.764 $a=0.00028800 $lvl=31
R3_4 MM5:SRC VSS:25 2.0 $l=0.0150 $w=0.0075 $lvl=16
R3_5 MM5:SRC VSS:11 2.0 $l=0.0150 $w=0.0075 $lvl=16
R3_6 MM5:SRC VSS:33 1.0 $l=0.0150 $w=0.0150 $lvl=16
R3_7 MM4:SRC VSS:25 2.0 $l=0.0150 $w=0.0075 $lvl=16
R3_8 MM4:SRC VSS:11 2.0 $l=0.0150 $w=0.0075 $lvl=16
R3_9 MM4:SRC VSS:33 1.0 $l=0.0150 $w=0.0150 $lvl=16
R3_10 MM11:SRC VSS:24 2.0 $l=0.0150 $w=0.0075 $lvl=16
R3_11 MM11:SRC VSS:10 2.0 $l=0.0150 $w=0.0075 $lvl=16
R3_12 MM11:SRC VSS:32 1.0 $l=0.0150 $w=0.0150 $lvl=16
R3_13 MM10:SRC VSS:24 2.0 $l=0.0150 $w=0.0075 $lvl=16
R3_14 MM10:SRC VSS:10 2.0 $l=0.0150 $w=0.0075 $lvl=16
R3_15 MM10:SRC VSS:32 1.0 $l=0.0150 $w=0.0150 $lvl=16
R3_16 MM3:SRC VSS:23 2.0 $l=0.0150 $w=0.0075 $lvl=16
R3_17 MM3:SRC VSS:9 2.0 $l=0.0150 $w=0.0075 $lvl=16
R3_18 MM3:SRC VSS:31 1.0 $l=0.0150 $w=0.0150 $lvl=16
R3_19 MM9:SRC VSS:23 2.0 $l=0.0150 $w=0.0075 $lvl=16
R3_20 MM9:SRC VSS:9 2.0 $l=0.0150 $w=0.0075 $lvl=16
R3_21 MM9:SRC VSS:31 1.0 $l=0.0150 $w=0.0150 $lvl=16
R3_22 VSS:9 VSS:31 1.87763 $l=0.0150 $w=0.0250 $lvl=16
R3_23 VSS:9 VSS:28 8.89907 $l=0.0150 $w=0.0200 $lvl=13
R3_24 VSS:10 VSS:32 1.87763 $l=0.0150 $w=0.0250 $lvl=16
R3_25 VSS:10 VSS:27 8.89907 $l=0.0150 $w=0.0200 $lvl=13
R3_26 VSS:11 VSS:33 1.87763 $l=0.0150 $w=0.0250 $lvl=16
R3_27 VSS:11 VSS:20 8.89907 $l=0.0150 $w=0.0200 $lvl=13
R3_28 VSS:12 VSS:13 63.5281 $a=0.00014400 $lvl=30
R3_29 VSS:12 VSS:26 10.4167 $l=0.0300 $w=0.0120 $lvl=9
R3_30 VSS:12 VSS:14 14.5833 $l=0.0420 $w=0.0120 $lvl=9
R3_31 VSS:13 VSS:29 39.6198 $l=0.0300 $w=0.0120 $lvl=14
R3_32 VSS:13 VSS:28 50.1851 $l=0.0420 $w=0.0120 $lvl=14
R3_33 VSS:14 VSS:15 14.5833 $l=0.0420 $w=0.0120 $lvl=9
R3_34 VSS:14 VSS:28 31.764 $a=0.00028800 $lvl=31
R3_35 VSS:15 VSS:16 63.5281 $a=0.00014400 $lvl=30
R3_36 VSS:16 VSS:28 50.1851 $l=0.0420 $w=0.0120 $lvl=14
R3_37 VSS:16 VSS:27 50.1851 $l=0.0420 $w=0.0120 $lvl=14
R3_38 VSS:17 VSS:18 63.5281 $a=0.00014400 $lvl=30
R3_39 VSS:17 VSS:19 14.5833 $l=0.0420 $w=0.0120 $lvl=9
R3_40 VSS:18 VSS:27 50.1851 $l=0.0420 $w=0.0120 $lvl=14
R3_41 VSS:18 VSS:20 50.1851 $l=0.0420 $w=0.0120 $lvl=14
R3_42 VSS:19 VSS:20 31.764 $a=0.00028800 $lvl=31
R3_43 VSS:19 VSS:21 14.5833 $l=0.0420 $w=0.0120 $lvl=9
R3_44 VSS:20 VSS:22 50.1851 $l=0.0420 $w=0.0120 $lvl=14
R3_45 VSS:21 VSS:22 63.5281 $a=0.00014400 $lvl=30
R3_46 VSS:21 VSS:34 10.4167 $l=0.0300 $w=0.0120 $lvl=9
R3_47 VSS:22 VSS:30 39.6198 $l=0.0300 $w=0.0120 $lvl=14
R3_48 VSS:23 VSS:31 1.87763 $l=0.0150 $w=0.0250 $lvl=16
R3_49 VSS:24 VSS:32 1.87763 $l=0.0150 $w=0.0250 $lvl=16
R3_50 VSS:25 VSS:33 1.87763 $l=0.0150 $w=0.0250 $lvl=16
R3_51 MM9:SRC MM9:BULK 0.01 $l=0.0060 $w=100.0000 $lvl=0

*|NET VDD 7.75518e-05PF
*|P (VDD B 0 0.2840 0.0720) // $llx=0.2830 $lly=0.0710 $urx=0.2850 $ury=0.0710 $lvl=19
*|P (VDD_1 B 0 0.1470 0.1200) // $llx=0.1410 $lly=0.1140 $urx=0.1530 $ury=0.1260 $lvl=33
*|I (MM1:BULK MM1 BULK B 0 0.1260 0.0900) // $llx=0.1260 $lly=0.0900 $urx=0.1260 $ury=0.0900 $lvl=19
*|I (MM0:BULK MM0 BULK B 0 0.0840 0.0900) // $llx=0.0840 $lly=0.0900 $urx=0.0840 $ury=0.0900 $lvl=19
*|I (MM0:SRC MM0 SRC B 0 0.0780 0.0900) // $llx=0.0780 $lly=0.0900 $urx=0.0780 $ury=0.0900 $lvl=17
*|I (MM8:BULK MM8 BULK B 0 0.0420 0.0900) // $llx=0.0420 $lly=0.0900 $urx=0.0420 $ury=0.0900 $lvl=19
*|I (MM8:SRC MM8 SRC B 0 0.0480 0.0900) // $llx=0.0480 $lly=0.0900 $urx=0.0480 $ury=0.0900 $lvl=17
*|I (MM7:BULK MM7 BULK B 0 0.2520 0.0900) // $llx=0.2520 $lly=0.0900 $urx=0.2520 $ury=0.0900 $lvl=19
*|I (MM6:BULK MM6 BULK B 0 0.2100 0.0900) // $llx=0.2100 $lly=0.0900 $urx=0.2100 $ury=0.0900 $lvl=19
*|I (MM2:BULK MM2 BULK B 0 0.1680 0.0900) // $llx=0.1680 $lly=0.0900 $urx=0.1680 $ury=0.0900 $lvl=19
*|S (VDD:10 0.0630 0.0750) // $llx=0.0530 $lly=0.0750 $urx=0.0730 $ury=0.0750 $lvl=15
*|S (VDD:11 0.0210 0.1200) // $llx=0.0150 $lly=0.1140 $urx=0.0270 $ury=0.1260 $lvl=9
*|S (VDD:12 0.0210 0.1200) // $llx=0.0150 $lly=0.1140 $urx=0.0270 $ury=0.1260 $lvl=14
*|S (VDD:13 0.0630 0.1200) // $llx=0.0570 $lly=0.1140 $urx=0.0690 $ury=0.1260 $lvl=9
*|S (VDD:14 0.0630 0.1200) // $llx=0.0530 $lly=0.1140 $urx=0.0730 $ury=0.1260 $lvl=13
*|S (VDD:15 0.1050 0.1200) // $llx=0.0990 $lly=0.1140 $urx=0.1110 $ury=0.1260 $lvl=9
*|S (VDD:16 0.1050 0.1200) // $llx=0.0990 $lly=0.1140 $urx=0.1110 $ury=0.1260 $lvl=14
*|S (VDD:17 0.1470 0.1200) // $llx=0.1410 $lly=0.1140 $urx=0.1530 $ury=0.1260 $lvl=14
*|S (VDD:18 0.1890 0.1200) // $llx=0.1830 $lly=0.1140 $urx=0.1950 $ury=0.1260 $lvl=9
*|S (VDD:19 0.1890 0.1200) // $llx=0.1830 $lly=0.1140 $urx=0.1950 $ury=0.1260 $lvl=14
*|S (VDD:20 0.2310 0.1200) // $llx=0.2250 $lly=0.1140 $urx=0.2370 $ury=0.1260 $lvl=9
*|S (VDD:21 0.2310 0.1200) // $llx=0.2250 $lly=0.1140 $urx=0.2370 $ury=0.1260 $lvl=14
*|S (VDD:22 0.2730 0.1200) // $llx=0.2670 $lly=0.1140 $urx=0.2790 $ury=0.1260 $lvl=9
*|S (VDD:23 0.2730 0.1200) // $llx=0.2670 $lly=0.1140 $urx=0.2790 $ury=0.1260 $lvl=14
*|S (VDD:24 0.0360 0.0900) // $llx=0.0360 $lly=0.0600 $urx=0.0360 $ury=0.1200 $lvl=18
*|S (VDD:25 0.0055 0.0900) // $llx=0.0000 $lly=0.0600 $urx=0.0110 $ury=0.1200 $lvl=18
*|S (VDD:26 0.0780 0.0900) // $llx=0.0780 $lly=0.0600 $urx=0.0780 $ury=0.1200 $lvl=18
*|S (VDD:27 0.0480 0.0600) // $llx=0.0480 $lly=0.0600 $urx=0.0480 $ury=0.1200 $lvl=19
*|S (VDD:28 0.0630 0.1050) // $llx=0.0530 $lly=0.1050 $urx=0.0730 $ury=0.1050 $lvl=15
*|S (VDD:29 0.1200 0.0900) // $llx=0.1200 $lly=0.0600 $urx=0.1200 $ury=0.1200 $lvl=18
*|S (VDD:30 0.0900 0.0600) // $llx=0.0900 $lly=0.0600 $urx=0.0900 $ury=0.1200 $lvl=19
*|S (VDD:31 0.1620 0.0900) // $llx=0.1620 $lly=0.0600 $urx=0.1620 $ury=0.1200 $lvl=18
*|S (VDD:32 0.1320 0.0600) // $llx=0.1320 $lly=0.0600 $urx=0.1320 $ury=0.1200 $lvl=19
*|S (VDD:33 0.2040 0.0900) // $llx=0.2040 $lly=0.0600 $urx=0.2040 $ury=0.1200 $lvl=18
*|S (VDD:34 0.1740 0.0600) // $llx=0.1740 $lly=0.0600 $urx=0.1740 $ury=0.1200 $lvl=19
*|S (VDD:35 0.2160 0.0900) // $llx=0.2160 $lly=0.0600 $urx=0.2160 $ury=0.1200 $lvl=18
*|S (VDD:36 -0.0090 0.1200) // $llx=-0.0090 $lly=0.1140 $urx=-0.0090 $ury=0.1260 $lvl=9
*|S (VDD:37 -0.0090 0.1200) // $llx=-0.0090 $lly=0.1140 $urx=-0.0090 $ury=0.1260 $lvl=14
*|S (VDD:38 0.3030 0.1200) // $llx=0.3030 $lly=0.1140 $urx=0.3030 $ury=0.1260 $lvl=14
*|S (VDD:39 0.0630 0.0900) // $llx=0.0530 $lly=0.0900 $urx=0.0730 $ury=0.0900 $lvl=15
*|S (VDD:40 0.3030 0.1200) // $llx=0.3030 $lly=0.1140 $urx=0.3030 $ury=0.1260 $lvl=9
C4_1 VDD:14 B:8 5.8338e-20
C4_2 VDD:14 B:9 2.25945e-19
C4_3 VDD:36 B:9 3.83923e-20
C4_4 VDD:14 B:10 1.49656e-19
C4_5 VDD:36 B:10 4.29081e-20
C4_6 VDD:14 B:12 5.99896e-20
C4_7 VDD:14 B:13 2.25945e-19
C4_8 VDD:36 B:13 3.83923e-20
C4_9 VDD:14 B:14 1.49656e-19
C4_10 VDD:36 B:14 4.29081e-20
C4_11 VDD:14 B:16 2.70423e-19
C4_12 VDD:35 B:18 4.00417e-19
C4_13 VDD:36 B:19 1.08085e-19
C4_14 VDD:10 B:20 4.2357e-20
C4_15 VDD:14 B:20 7.21557e-20
C4_16 VDD:32 B:20 4.40421e-20
C4_17 VDD:36 B:20 1.76973e-19
C4_18 VDD:34 C:6 1.70135e-21
C4_19 VDD:14 C:7 5.99896e-20
C4_20 VDD:14 C:8 2.25945e-19
C4_21 VDD:36 C:8 3.83923e-20
C4_22 VDD:14 C:9 1.49656e-19
C4_23 VDD:36 C:9 4.29081e-20
C4_24 VDD:14 C:14 1.49656e-19
C4_25 VDD:36 C:14 4.29081e-20
C4_26 VDD:35 C:15 5.42094e-21
C4_27 VDD:14 C:17 3.47065e-19
C4_28 VDD C:20 1.05196e-21
C4_29 MM7:BULK C:20 3.19095e-20
C4_30 VDD:33 C:20 3.15588e-20
C4_31 VDD:34 C:20 2.12434e-20
C4_32 VDD:35 C:20 2.01681e-20
C4_33 VDD:36 C:20 6.01049e-19
C4_34 VDD C:21 7.01307e-22
C4_35 MM7:BULK C:21 7.71438e-21
C4_36 VDD:10 MM9:BULK 8.00545e-19
C4_37 VDD:14 MM9:BULK 1.31438e-18
C4_38 VDD:27 MM9:BULK 1.2528e-21
C4_39 VDD:30 MM9:BULK 1.83467e-21
C4_40 VDD:32 MM9:BULK 3.67416e-21
C4_41 VDD:34 MM9:BULK 7.57481e-21
C4_42 VDD:35 MM9:BULK 6.34286e-20
C4_43 VDD:36 MM9:BULK 1.71331e-18
C4_44 VDD:14 VSS:20 3.31165e-20
C4_45 VDD:25 VSS:20 1.12139e-19
C4_46 VDD:34 VSS:20 1.33485e-21
C4_47 VDD:36 VSS:20 7.10305e-20
C4_48 VDD:14 VSS:26 3.37305e-20
C4_49 VDD:36 VSS:26 6.05647e-19
Cg4_50 VDD 0 1.11453e-18
Cg4_51 MM7:BULK 0 3.85321e-18
Cg4_52 VDD:10 0 2.44188e-19
Cg4_53 VDD:14 0 1.52574e-17
Cg4_54 VDD:24 0 2.58844e-19
Cg4_55 VDD:25 0 1.85446e-18
Cg4_56 VDD:26 0 3.10612e-19
Cg4_57 VDD:27 0 1.90694e-18
Cg4_58 VDD:28 0 6.21225e-19
Cg4_59 VDD:29 0 3.10612e-19
Cg4_60 VDD:30 0 1.90011e-18
Cg4_61 VDD:31 0 3.10612e-19
Cg4_62 VDD:32 0 1.88742e-18
Cg4_63 VDD:33 0 3.10612e-19
Cg4_64 VDD:34 0 1.85504e-18
Cg4_65 VDD:35 0 1.79785e-18
Cg4_66 VDD:36 0 8.36733e-18
R4_1 VDD MM7:BULK 0.436719 $l=0.0320 $w=0.0600 $lvl=19
R4_2 MM1:BULK VDD:32 0.1 $l=0.0060 $w=0.0600 $lvl=18
R4_3 MM1:BULK VDD:29 0.1 $l=0.0060 $w=0.0600 $lvl=18
R4_4 MM0:BULK VDD:30 0.1 $l=0.0060 $w=0.0600 $lvl=18
R4_5 MM0:BULK VDD:26 0.1 $l=0.0060 $w=0.0600 $lvl=18
R4_6 MM0:SRC VDD:28 2.0 $l=0.0150 $w=0.0075 $lvl=17
R4_7 MM0:SRC VDD:10 2.0 $l=0.0150 $w=0.0075 $lvl=17
R4_8 MM0:SRC VDD:39 1.0 $l=0.0150 $w=0.0150 $lvl=17
R4_9 MM8:BULK VDD:27 0.1 $l=0.0060 $w=0.0600 $lvl=18
R4_10 MM8:BULK VDD:24 0.1 $l=0.0060 $w=0.0600 $lvl=18
R4_11 MM8:SRC VDD:28 2.0 $l=0.0150 $w=0.0075 $lvl=17
R4_12 MM8:SRC VDD:10 2.0 $l=0.0150 $w=0.0075 $lvl=17
R4_13 MM8:SRC VDD:39 1.0 $l=0.0150 $w=0.0150 $lvl=17
R4_14 MM7:BULK VDD:35 0.6 $l=0.0360 $w=0.0600 $lvl=18
R4_15 MM6:BULK VDD:35 0.1 $l=0.0060 $w=0.0600 $lvl=18
R4_16 MM6:BULK VDD:33 0.1 $l=0.0060 $w=0.0600 $lvl=18
R4_17 MM2:BULK VDD:34 0.1 $l=0.0060 $w=0.0600 $lvl=18
R4_18 MM2:BULK VDD:31 0.1 $l=0.0060 $w=0.0600 $lvl=18
R4_19 VDD:10 VDD:39 1.87763 $l=0.0150 $w=0.0250 $lvl=17
R4_20 VDD:11 VDD:12 63.5281 $a=0.00014400 $lvl=30
R4_21 VDD:11 VDD:36 10.4167 $l=0.0300 $w=0.0120 $lvl=9
R4_22 VDD:11 VDD:13 14.5833 $l=0.0420 $w=0.0120 $lvl=9
R4_23 VDD:12 VDD:37 39.6198 $l=0.0300 $w=0.0120 $lvl=14
R4_24 VDD:12 VDD:14 50.1851 $l=0.0420 $w=0.0120 $lvl=14
R4_25 VDD:13 VDD:14 31.764 $a=0.00028800 $lvl=31
R4_26 VDD:13 VDD:15 14.5833 $l=0.0420 $w=0.0120 $lvl=9
R4_27 VDD:14 VDD:16 50.1851 $l=0.0420 $w=0.0120 $lvl=14
R4_28 VDD:14 VDD:28 8.89907 $l=0.0150 $w=0.0200 $lvl=13
R4_29 VDD:15 VDD_1 14.5833 $l=0.0420 $w=0.0120 $lvl=9
R4_30 VDD:15 VDD:16 63.5281 $a=0.00014400 $lvl=30
R4_31 VDD:16 VDD:17 55.4677 $l=0.0420 $w=0.0120 $lvl=14
R4_32 VDD:17 VDD:19 55.4677 $l=0.0420 $w=0.0120 $lvl=14
R4_33 VDD:17 VDD_1 63.5281 $a=0.00014400 $lvl=30
R4_34 VDD:18 VDD_1 14.5833 $l=0.0420 $w=0.0120 $lvl=9
R4_35 VDD:18 VDD:19 63.5281 $a=0.00014400 $lvl=30
R4_36 VDD:18 VDD:20 14.5833 $l=0.0420 $w=0.0120 $lvl=9
R4_37 VDD:19 VDD:21 55.4677 $l=0.0420 $w=0.0120 $lvl=14
R4_38 VDD:20 VDD:21 63.5281 $a=0.00014400 $lvl=30
R4_39 VDD:20 VDD:22 14.5833 $l=0.0420 $w=0.0120 $lvl=9
R4_40 VDD:21 VDD:23 55.4677 $l=0.0420 $w=0.0120 $lvl=14
R4_41 VDD:22 VDD:23 63.5281 $a=0.00014400 $lvl=30
R4_42 VDD:22 VDD:40 10.4167 $l=0.0300 $w=0.0120 $lvl=9
R4_43 VDD:23 VDD:38 39.6198 $l=0.0300 $w=0.0120 $lvl=14
R4_44 VDD:24 VDD:25 0.406667 $l=0.0305 $w=0.0750 $lvl=18
R4_45 VDD:26 VDD:27 0.5 $l=0.0300 $w=0.0600 $lvl=18
R4_46 VDD:28 VDD:39 1.87763 $l=0.0150 $w=0.0250 $lvl=17
R4_47 VDD:29 VDD:30 0.5 $l=0.0300 $w=0.0600 $lvl=18
R4_48 VDD:31 VDD:32 0.5 $l=0.0300 $w=0.0600 $lvl=18
R4_49 VDD:33 VDD:34 0.5 $l=0.0300 $w=0.0600 $lvl=18
R4_50 MM0:SRC VDD:26 0.01 $l=0.0000 $w=100.0000 $lvl=0

*|NET Y 7.82995e-05PF
*|P (Y B 0 0.1470 0.0240) // $llx=0.1460 $lly=0.0230 $urx=0.1480 $ury=0.0250 $lvl=33
*|I (MM5:DRN MM5 DRN B 0 0.2580 0.0300) // $llx=0.2580 $lly=0.0300 $urx=0.2580 $ury=0.0300 $lvl=16
*|I (MM4:DRN MM4 DRN B 0 0.2040 0.0300) // $llx=0.2040 $lly=0.0300 $urx=0.2040 $ury=0.0300 $lvl=16
*|I (MM11:DRN MM11 DRN B 0 0.1740 0.0300) // $llx=0.1740 $lly=0.0300 $urx=0.1740 $ury=0.0300 $lvl=16
*|I (MM10:DRN MM10 DRN B 0 0.1200 0.0300) // $llx=0.1200 $lly=0.0300 $urx=0.1200 $ury=0.0300 $lvl=16
*|I (MM3:DRN MM3 DRN B 0 0.0900 0.0300) // $llx=0.0900 $lly=0.0300 $urx=0.0900 $ury=0.0300 $lvl=16
*|I (MM9:DRN MM9 DRN B 0 0.0360 0.0300) // $llx=0.0360 $lly=0.0300 $urx=0.0360 $ury=0.0300 $lvl=16
*|I (MM6:DRN MM6 DRN B 0 0.2040 0.0900) // $llx=0.2040 $lly=0.0900 $urx=0.2040 $ury=0.0900 $lvl=17
*|I (MM2:DRN MM2 DRN B 0 0.1740 0.0900) // $llx=0.1740 $lly=0.0900 $urx=0.1740 $ury=0.0900 $lvl=17
*|S (Y:10 0.0210 0.0150) // $llx=0.0110 $lly=0.0150 $urx=0.0310 $ury=0.0150 $lvl=13
*|S (Y:11 0.1050 0.0150) // $llx=0.0950 $lly=0.0150 $urx=0.1150 $ury=0.0150 $lvl=13
*|S (Y:12 0.1890 0.0750) // $llx=0.1790 $lly=0.0750 $urx=0.1990 $ury=0.0750 $lvl=13
*|S (Y:13 0.2730 0.0150) // $llx=0.2630 $lly=0.0150 $urx=0.2830 $ury=0.0150 $lvl=13
*|S (Y:14 0.0210 0.0450) // $llx=0.0110 $lly=0.0450 $urx=0.0310 $ury=0.0450 $lvl=13
*|S (Y:15 0.1050 0.0450) // $llx=0.0950 $lly=0.0450 $urx=0.1150 $ury=0.0450 $lvl=13
*|S (Y:16 0.1890 0.0150) // $llx=0.1790 $lly=0.0150 $urx=0.1990 $ury=0.0150 $lvl=13
*|S (Y:17 0.1890 0.1050) // $llx=0.1790 $lly=0.1050 $urx=0.1990 $ury=0.1050 $lvl=13
*|S (Y:18 0.2730 0.0450) // $llx=0.2630 $lly=0.0450 $urx=0.2830 $ury=0.0450 $lvl=13
*|S (Y:19 0.0210 0.0240) // $llx=0.0150 $lly=0.0180 $urx=0.0270 $ury=0.0300 $lvl=9
*|S (Y:20 0.0210 0.0240) // $llx=0.0110 $lly=0.0180 $urx=0.0310 $ury=0.0300 $lvl=13
*|S (Y:21 0.1050 0.0240) // $llx=0.0990 $lly=0.0180 $urx=0.1110 $ury=0.0300 $lvl=9
*|S (Y:22 0.1050 0.0240) // $llx=0.0950 $lly=0.0180 $urx=0.1150 $ury=0.0300 $lvl=13
*|S (Y:23 0.1890 0.0240) // $llx=0.1830 $lly=0.0180 $urx=0.1950 $ury=0.0300 $lvl=9
*|S (Y:24 0.1890 0.0240) // $llx=0.1790 $lly=0.0180 $urx=0.1990 $ury=0.0300 $lvl=13
*|S (Y:25 0.2730 0.0300) // $llx=0.2670 $lly=0.0180 $urx=0.2790 $ury=0.0360 $lvl=9
*|S (Y:26 0.2730 0.0300) // $llx=0.2630 $lly=0.0240 $urx=0.2830 $ury=0.0360 $lvl=13
*|S (Y:27 0.0150 0.0240) // $llx=0.0150 $lly=0.0180 $urx=0.0150 $ury=0.0300 $lvl=9
*|S (Y:28 0.2730 0.0780) // $llx=0.2670 $lly=0.0780 $urx=0.2790 $ury=0.0780 $lvl=9
*|S (Y:29 0.1890 0.0450) // $llx=0.1790 $lly=0.0450 $urx=0.1990 $ury=0.0450 $lvl=13
*|S (Y:30 0.0210 0.0300) // $llx=0.0110 $lly=0.0300 $urx=0.0310 $ury=0.0300 $lvl=15
*|S (Y:31 0.1050 0.0300) // $llx=0.0950 $lly=0.0300 $urx=0.1150 $ury=0.0300 $lvl=15
*|S (Y:32 0.1890 0.0300) // $llx=0.1790 $lly=0.0300 $urx=0.1990 $ury=0.0300 $lvl=15
*|S (Y:33 0.1890 0.0900) // $llx=0.1790 $lly=0.0900 $urx=0.1990 $ury=0.0900 $lvl=15
C5_1 Y:27 B:6 2.73921e-20
C5_2 Y:27 B:7 8.26854e-20
C5_3 Y:12 B:12 3.41667e-19
C5_4 Y:27 B:18 6.4413e-20
C5_5 MM11:DRN B:19 6.19496e-20
C5_6 MM3:DRN B:19 2.65107e-20
C5_7 Y:11 B:19 1.22834e-19
C5_8 Y:12 B:19 8.74721e-19
C5_9 Y:15 B:19 8.02643e-20
C5_10 Y:16 B:19 3.78079e-20
C5_11 Y:27 B:19 8.7319e-18
C5_12 Y:28 B:19 1.31388e-19
C5_13 Y:27 B:20 1.16344e-19
C5_14 Y:28 B:20 1.03809e-20
C5_15 Y:27 C:6 2.55247e-20
C5_16 Y:27 C:7 6.0564e-20
C5_17 Y:27 C:10 1.22607e-20
C5_18 Y:27 C:11 3.45389e-20
C5_19 Y:28 C:11 8.62979e-20
C5_20 Y:27 C:12 6.77794e-20
C5_21 Y:28 C:12 6.28681e-20
C5_22 MM2:DRN C:20 6.19496e-20
C5_23 Y:12 C:20 8.74721e-19
C5_24 Y:17 C:20 3.78079e-20
C5_25 Y:27 C:20 7.4619e-19
C5_26 Y:28 C:20 1.18804e-18
C5_27 Y:27 C:21 2.03175e-18
C5_28 Y:28 C:21 1.6943e-18
C5_29 MM5:DRN MM9:BULK 2.06694e-20
C5_30 Y:10 MM9:BULK 8.30727e-19
C5_31 Y:11 MM9:BULK 8.3025e-19
C5_32 Y:12 MM9:BULK 1.87433e-18
C5_33 Y:14 MM9:BULK 8.25841e-19
C5_34 Y:15 MM9:BULK 8.25659e-19
C5_35 Y:16 MM9:BULK 8.24482e-19
C5_36 Y:17 MM9:BULK 7.99368e-19
C5_37 Y:27 MM9:BULK 7.81831e-19
C5_38 Y:28 MM9:BULK 4.52589e-19
C5_39 MM3:DRN VSS:9 3.11406e-20
C5_40 Y:27 VSS:9 2.07733e-19
C5_41 MM11:DRN VSS:10 2.82443e-20
C5_42 Y:27 VSS:10 1.86408e-19
C5_43 MM5:DRN VSS:11 2.82443e-20
C5_44 Y:27 VSS:11 1.71339e-19
C5_45 MM5:DRN VSS:20 5.892e-19
C5_46 MM11:DRN VSS:20 6.72399e-19
C5_47 MM3:DRN VSS:20 8.9439e-19
C5_48 MM9:DRN VSS:20 2.21991e-19
C5_49 Y:10 VSS:20 2.55965e-18
C5_50 Y:27 VSS:20 1.38628e-18
C5_51 Y:10 VSS:23 2.59073e-20
C5_52 Y:14 VSS:23 2.91317e-20
C5_53 Y:27 VSS:23 5.23195e-20
C5_54 Y:11 VSS:24 2.59073e-20
C5_55 Y:15 VSS:24 2.91317e-20
C5_56 Y:27 VSS:24 5.12819e-20
C5_57 Y:12 VSS:25 2.59073e-20
C5_58 Y:16 VSS:25 2.91317e-20
C5_59 Y:27 VSS:25 5.0338e-20
C5_60 Y:27 VSS:26 2.33332e-17
C5_61 Y:28 VSS:26 1.21815e-19
C5_62 MM11:DRN VSS:27 2.13821e-20
C5_63 Y:27 VSS:27 3.61507e-19
C5_64 MM3:DRN VSS:28 2.67035e-20
C5_65 Y:27 VSS:28 3.09655e-19
Cg5_66 MM5:DRN 0 5.17687e-19
Cg5_67 MM11:DRN 0 6.21225e-19
Cg5_68 MM3:DRN 0 6.14112e-19
Cg5_69 MM9:DRN 0 5.17687e-19
Cg5_70 MM2:DRN 0 6.21225e-19
Cg5_71 Y:10 0 4.75782e-19
Cg5_72 Y:11 0 1.5631e-19
Cg5_73 Y:12 0 4.43208e-19
Cg5_74 Y:13 0 1.403e-19
Cg5_75 Y:14 0 2.57951e-19
Cg5_76 Y:15 0 1.98767e-19
Cg5_77 Y:16 0 2.45596e-19
Cg5_78 Y:17 0 2.55569e-19
Cg5_79 Y:18 0 1.78742e-19
Cg5_80 Y:27 0 4.35263e-18
Cg5_81 Y:28 0 1.88551e-18
R5_1 Y Y:23 14.5833 $l=0.0420 $w=0.0120 $lvl=9
R5_2 Y Y:21 14.5833 $l=0.0420 $w=0.0120 $lvl=9
R5_3 MM5:DRN Y:18 2.0 $l=0.0150 $w=0.0075 $lvl=16
R5_4 MM5:DRN Y:13 2.0 $l=0.0150 $w=0.0075 $lvl=16
R5_5 MM5:DRN Y:26 1.0 $l=0.0150 $w=0.0150 $lvl=16