*
*|DSPF 1.3
*|DESIGN OAI221x1
*|DATE "Tue Oct 15 21:11:35 2024"
*|VENDOR "Synopsys"
*|PROGRAM "StarRC"
*|VERSION "V-2023.12-SP5"
*|DIVIDER .
*|DELIMITER :
**FORMAT SPF
*

** COMMENTS

** OPERATING_TEMPERATURE 25
** GLOBAL_TEMPERATURE 25
** 
** TCAD_GRD_FILE /home/gtcad/ctsai314/ITF_Modification/0_reference/3nm_FF_noBPR.nxtgrd
**   TCAD_TIME_STAMP Tue Sep 3 21:56:12 2024
**   TCADGRD_VERSION 89

.SUBCKT OAI221x1 A B C D E VDD VSS Y

*|GROUND_NET 0

*LAYER_MAP

*0 SUBSTRATE
*1 m9    ITF=M9
*2 m8    ITF=M8
*3 m7    ITF=M7
*4 m6    ITF=M6
*5 m5    ITF=M5
*6 m4    ITF=M4
*7 m3    ITF=M3
*8 m2    ITF=M2
*9 m1    ITF=M1
*10 fpoly    ITF=Gate
*11 ngate    ITF=Gate
*12 pgate    ITF=Gate
*13 lisd    ITF=LISD
*14 lig    ITF=LIG
*15 sdt    ITF=SDT
*16 nsd    ITF=Active
*17 psd    ITF=Active
*18 pselect    ITF=Active
*19 well    ITF=Active
*20 sub    ITF=Active
*21 nselect    ITF=Active
*22 v8    ITF=V8
*23 v7    ITF=V7
*24 v6    ITF=V6
*25 v5    ITF=V5
*26 v4    ITF=V4
*27 v3    ITF=V3
*28 v2    ITF=V2
*29 v1    ITF=V1
*30 v0lig    ITF=V0LIG
*31 v0lisd    ITF=V0LISD
*32 well_pin    ITF=Active
*33 M1_pin    ITF=M1
*34 M2_pin    ITF=M2
*35 M3_pin    ITF=M3
*36 M4_pin    ITF=M4
*37 M5_pin    ITF=M5
*38 M6_pin    ITF=M6
*39 M7_pin    ITF=M7
*40 M8_pin    ITF=M8
*41 M9_pin    ITF=M9

*|NET VDD 7.39717e-05PF
*|P (VDD B 0 0.1160 0.0720) // $llx=0.1150 $lly=0.0710 $urx=0.1170 $ury=0.0710 $lvl=19
*|P (VDD_1 B 0 0.1260 0.1200) // $llx=0.1250 $lly=0.1190 $urx=0.1270 $ury=0.1210 $lvl=33
*|I (MM0:BULK MM0 BULK B 0 0.0420 0.0900) // $llx=0.0420 $lly=0.0900 $urx=0.0420 $ury=0.0900 $lvl=19
*|I (MM0:SRC MM0 SRC B 0 0.0360 0.0900) // $llx=0.0360 $lly=0.0900 $urx=0.0360 $ury=0.0900 $lvl=17
*|I (MM4:BULK MM4 BULK B 0 0.2100 0.0900) // $llx=0.2100 $lly=0.0900 $urx=0.2100 $ury=0.0900 $lvl=19
*|I (MM3:BULK MM3 BULK B 0 0.1680 0.0900) // $llx=0.1680 $lly=0.0900 $urx=0.1680 $ury=0.0900 $lvl=19
*|I (MM3:SRC MM3 SRC B 0 0.1620 0.0900) // $llx=0.1620 $lly=0.0900 $urx=0.1620 $ury=0.0900 $lvl=17
*|I (MM2:BULK MM2 BULK B 0 0.1260 0.0900) // $llx=0.1260 $lly=0.0900 $urx=0.1260 $ury=0.0900 $lvl=19
*|I (MM2:SRC MM2 SRC B 0 0.1320 0.0900) // $llx=0.1320 $lly=0.0900 $urx=0.1320 $ury=0.0900 $lvl=17
*|I (MM1:BULK MM1 BULK B 0 0.0840 0.0900) // $llx=0.0840 $lly=0.0900 $urx=0.0840 $ury=0.0900 $lvl=19
*|S (VDD:10 0.0210 0.0750) // $llx=0.0110 $lly=0.0750 $urx=0.0310 $ury=0.0750 $lvl=15
*|S (VDD:11 0.1470 0.0750) // $llx=0.1370 $lly=0.0750 $urx=0.1570 $ury=0.0750 $lvl=15
*|S (VDD:12 0.0210 0.1200) // $llx=0.0150 $lly=0.1140 $urx=0.0270 $ury=0.1260 $lvl=9
*|S (VDD:13 0.0630 0.1200) // $llx=0.0570 $lly=0.1140 $urx=0.0690 $ury=0.1260 $lvl=9
*|S (VDD:14 0.0630 0.1200) // $llx=0.0570 $lly=0.1140 $urx=0.0690 $ury=0.1260 $lvl=14
*|S (VDD:15 0.1050 0.1200) // $llx=0.0990 $lly=0.1140 $urx=0.1110 $ury=0.1260 $lvl=9
*|S (VDD:16 0.1050 0.1200) // $llx=0.0990 $lly=0.1140 $urx=0.1110 $ury=0.1260 $lvl=14
*|S (VDD:17 0.1470 0.1200) // $llx=0.1410 $lly=0.1140 $urx=0.1530 $ury=0.1260 $lvl=9
*|S (VDD:18 0.1470 0.1200) // $llx=0.1370 $lly=0.1140 $urx=0.1570 $ury=0.1260 $lvl=13
*|S (VDD:19 0.1890 0.1200) // $llx=0.1830 $lly=0.1140 $urx=0.1950 $ury=0.1260 $lvl=9
*|S (VDD:20 0.1890 0.1200) // $llx=0.1830 $lly=0.1140 $urx=0.1950 $ury=0.1260 $lvl=14
*|S (VDD:21 0.2310 0.1200) // $llx=0.2250 $lly=0.1140 $urx=0.2370 $ury=0.1260 $lvl=9
*|S (VDD:22 0.2310 0.1200) // $llx=0.2250 $lly=0.1140 $urx=0.2370 $ury=0.1260 $lvl=14
*|S (VDD:23 0.0360 0.0900) // $llx=0.0360 $lly=0.0600 $urx=0.0360 $ury=0.1200 $lvl=18
*|S (VDD:24 0.0210 0.1050) // $llx=0.0110 $lly=0.1050 $urx=0.0310 $ury=0.1050 $lvl=15
*|S (VDD:25 0.0055 0.0900) // $llx=0.0000 $lly=0.0600 $urx=0.0110 $ury=0.1200 $lvl=18
*|S (VDD:26 0.0780 0.0900) // $llx=0.0780 $lly=0.0600 $urx=0.0780 $ury=0.1200 $lvl=18
*|S (VDD:27 0.0480 0.0600) // $llx=0.0480 $lly=0.0600 $urx=0.0480 $ury=0.1200 $lvl=19
*|S (VDD:28 0.1620 0.0900) // $llx=0.1620 $lly=0.0600 $urx=0.1620 $ury=0.1200 $lvl=18
*|S (VDD:29 0.1320 0.0600) // $llx=0.1320 $lly=0.0600 $urx=0.1320 $ury=0.1200 $lvl=19
*|S (VDD:30 0.1470 0.1050) // $llx=0.1370 $lly=0.1050 $urx=0.1570 $ury=0.1050 $lvl=15
*|S (VDD:31 0.1740 0.0900) // $llx=0.1740 $lly=0.0600 $urx=0.1740 $ury=0.1200 $lvl=18
*|S (VDD:32 0.2410 0.0900) // $llx=0.2410 $lly=0.0600 $urx=0.2520 $ury=0.1200 $lvl=18
*|S (VDD:33 -0.0090 0.1200) // $llx=-0.0090 $lly=0.1140 $urx=-0.0090 $ury=0.1260 $lvl=9
*|S (VDD:34 0.0210 0.1200) // $llx=0.0110 $lly=0.1140 $urx=0.0310 $ury=0.1260 $lvl=14
*|S (VDD:35 -0.0090 0.1200) // $llx=-0.0090 $lly=0.1140 $urx=-0.0090 $ury=0.1260 $lvl=14
*|S (VDD:36 0.2610 0.1200) // $llx=0.2610 $lly=0.1140 $urx=0.2610 $ury=0.1260 $lvl=14
*|S (VDD:37 0.0210 0.0900) // $llx=0.0110 $lly=0.0900 $urx=0.0310 $ury=0.0900 $lvl=15
*|S (VDD:38 0.1470 0.0900) // $llx=0.1370 $lly=0.0900 $urx=0.1570 $ury=0.0900 $lvl=15
*|S (VDD:39 0.2610 0.1200) // $llx=0.2610 $lly=0.1140 $urx=0.2610 $ury=0.1260 $lvl=9
Cg1_1 VDD 0 2.19126e-18
Cg1_2 MM4:BULK 0 2.52598e-18
Cg1_3 VDD:10 0 9.05857e-19
Cg1_4 VDD:11 0 2.54573e-19
Cg1_5 VDD:18 0 1.33807e-17
Cg1_6 VDD:23 0 2.58844e-19
Cg1_7 VDD:24 0 5.17687e-19
Cg1_8 VDD:25 0 1.72222e-18
Cg1_9 VDD:26 0 3.10612e-19
Cg1_10 VDD:27 0 1.89334e-18
Cg1_11 VDD:28 0 3.10612e-19
Cg1_12 VDD:29 0 1.85504e-18
Cg1_13 VDD:30 0 6.1716e-19
Cg1_14 VDD:31 0 1.79785e-18
Cg1_15 VDD:32 0 2.10096e-18
Cg1_16 VDD:33 0 8.52741e-18
Cg1_17 VDD:34 0 7.6557e-19
R1_1 VDD MM1:BULK 0.308333 $l=0.0320 $w=0.0600 $lvl=18
R1_2 VDD MM2:BULK 0.35 $l=0.0100 $w=0.0600 $lvl=18
R1_3 MM0:BULK VDD:27 0.1 $l=0.0060 $w=0.0600 $lvl=18
R1_4 MM0:BULK VDD:23 0.1 $l=0.0060 $w=0.0600 $lvl=18
R1_5 MM0:SRC VDD:24 2.0 $l=0.0150 $w=0.0075 $lvl=17
R1_6 MM0:SRC VDD:10 2.0 $l=0.0150 $w=0.0075 $lvl=17
R1_7 MM0:SRC VDD:37 1.0 $l=0.0150 $w=0.0150 $lvl=17
R1_8 MM4:BULK VDD:31 0.6 $l=0.0360 $w=0.0600 $lvl=18
R1_9 MM4:BULK VDD:32 0.545216 $l=0.0310 $w=0.0600 $lvl=18
R1_10 MM3:BULK VDD:31 0.1 $l=0.0060 $w=0.0600 $lvl=18
R1_11 MM3:BULK VDD:28 0.1 $l=0.0060 $w=0.0600 $lvl=18
R1_12 MM3:SRC VDD:30 2.0 $l=0.0150 $w=0.0075 $lvl=17
R1_13 MM3:SRC VDD:11 2.0 $l=0.0150 $w=0.0075 $lvl=17
R1_14 MM3:SRC VDD:38 1.0 $l=0.0150 $w=0.0150 $lvl=17
R1_15 MM2:BULK VDD:29 0.1 $l=0.0060 $w=0.0600 $lvl=18
R1_16 MM2:SRC VDD:30 2.0 $l=0.0150 $w=0.0075 $lvl=17
R1_17 MM2:SRC VDD:11 2.0 $l=0.0150 $w=0.0075 $lvl=17
R1_18 MM2:SRC VDD:38 1.0 $l=0.0150 $w=0.0150 $lvl=17
R1_19 MM1:BULK VDD:26 0.1 $l=0.0060 $w=0.0600 $lvl=18
R1_20 VDD:10 VDD:37 2.73284 $l=0.0150 $w=0.0225 $lvl=17
R1_21 VDD:11 VDD:38 1.87763 $l=0.0150 $w=0.0250 $lvl=17
R1_22 VDD:12 VDD:33 10.4167 $l=0.0300 $w=0.0120 $lvl=9
R1_23 VDD:12 VDD:13 14.5833 $l=0.0420 $w=0.0120 $lvl=9
R1_24 VDD:12 VDD:34 31.764 $a=0.00028800 $lvl=31
R1_25 VDD:13 VDD:14 63.5281 $a=0.00014400 $lvl=30
R1_26 VDD:13 VDD:15 14.5833 $l=0.0420 $w=0.0120 $lvl=9
R1_27 VDD:14 VDD:34 50.1851 $l=0.0420 $w=0.0120 $lvl=14
R1_28 VDD:14 VDD:16 55.4677 $l=0.0420 $w=0.0120 $lvl=14
R1_29 VDD:15 VDD:16 63.5281 $a=0.00014400 $lvl=30
R1_30 VDD:15 VDD_1 7.29167 $l=0.0210 $w=0.0120 $lvl=9
R1_31 VDD:16 VDD:18 50.1851 $l=0.0420 $w=0.0120 $lvl=14
R1_32 VDD:17 VDD:18 31.764 $a=0.00028800 $lvl=31
R1_33 VDD:17 VDD:19 14.5833 $l=0.0420 $w=0.0120 $lvl=9
R1_34 VDD:17 VDD_1 7.29167 $l=0.0210 $w=0.0120 $lvl=9
R1_35 VDD:18 VDD:20 50.1851 $l=0.0420 $w=0.0120 $lvl=14
R1_36 VDD:18 VDD:30 8.89907 $l=0.0150 $w=0.0200 $lvl=13
R1_37 VDD:19 VDD:20 63.5281 $a=0.00014400 $lvl=30
R1_38 VDD:19 VDD:21 14.5833 $l=0.0420 $w=0.0120 $lvl=9
R1_39 VDD:20 VDD:22 55.4677 $l=0.0420 $w=0.0120 $lvl=14
R1_40 VDD:21 VDD:22 63.5281 $a=0.00014400 $lvl=30
R1_41 VDD:21 VDD:39 10.4167 $l=0.0300 $w=0.0120 $lvl=9
R1_42 VDD:22 VDD:36 39.6198 $l=0.0300 $w=0.0120 $lvl=14
R1_43 VDD:23 VDD:25 0.406667 $l=0.0305 $w=0.0750 $lvl=18
R1_44 VDD:24 VDD:37 2.73284 $l=0.0150 $w=0.0225 $lvl=17
R1_45 VDD:24 VDD:34 8.89907 $l=0.0150 $w=0.0200 $lvl=13
R1_46 VDD:26 VDD:27 0.5 $l=0.0300 $w=0.0600 $lvl=18
R1_47 VDD:28 VDD:29 0.5 $l=0.0300 $w=0.0600 $lvl=18
R1_48 VDD:30 VDD:38 1.87763 $l=0.0150 $w=0.0250 $lvl=17
R1_49 VDD:34 VDD:35 34.3372 $l=0.0300 $w=0.0120 $lvl=14
R1_50 MM3:SRC VDD:28 0.01 $l=0.0000 $w=100.0000 $lvl=0

*|NET VSS 6.56512e-05PF
*|P (VSS B 0 0.1260 0.0000) // $llx=0.1250 $lly=-0.0010 $urx=0.1270 $ury=0.0010 $lvl=33
*|I (MM8:BULK MM8 BULK B 0 0.1680 0.0300) // $llx=0.1680 $lly=0.0300 $urx=0.1680 $ury=0.0300 $lvl=20
*|I (MM6:SRC MM6 SRC B 0 0.0780 0.0300) // $llx=0.0780 $lly=0.0300 $urx=0.0780 $ury=0.0300 $lvl=16
*|I (MM5:SRC MM5 SRC B 0 0.0480 0.0300) // $llx=0.0480 $lly=0.0300 $urx=0.0480 $ury=0.0300 $lvl=16
*|I (MM8:BULK MM9 BULK B 0 0.2100 0.0300) // $llx=0.2100 $lly=0.0300 $urx=0.2100 $ury=0.0300 $lvl=20
*|I (MM8:BULK MM7 BULK B 0 0.1260 0.0300) // $llx=0.1260 $lly=0.0300 $urx=0.1260 $ury=0.0300 $lvl=20
*|I (MM8:BULK MM6 BULK B 0 0.0840 0.0300) // $llx=0.0840 $lly=0.0300 $urx=0.0840 $ury=0.0300 $lvl=20
*|I (MM8:BULK MM5 BULK B 0 0.0420 0.0300) // $llx=0.0420 $lly=0.0300 $urx=0.0420 $ury=0.0300 $lvl=20
*|S (VSS:5 0.0630 0.0150) // $llx=0.0530 $lly=0.0150 $urx=0.0730 $ury=0.0150 $lvl=15
*|S (VSS:6 0.0210 0.0000) // $llx=0.0150 $lly=-0.0060 $urx=0.0270 $ury=0.0060 $lvl=9
*|S (VSS:7 0.0210 0.0000) // $llx=0.0150 $lly=-0.0060 $urx=0.0270 $ury=0.0060 $lvl=14
*|S (VSS:8 0.0630 0.0000) // $llx=0.0570 $lly=-0.0060 $urx=0.0690 $ury=0.0060 $lvl=9
*|S (VSS:9 0.0630 0.0000) // $llx=0.0530 $lly=-0.0060 $urx=0.0730 $ury=0.0060 $lvl=13
*|S (VSS:10 0.1050 0.0000) // $llx=0.0990 $lly=-0.0060 $urx=0.1110 $ury=0.0060 $lvl=9
*|S (VSS:11 0.1050 0.0000) // $llx=0.0990 $lly=-0.0060 $urx=0.1110 $ury=0.0060 $lvl=14
*|S (VSS:12 0.1470 0.0000) // $llx=0.1410 $lly=-0.0060 $urx=0.1530 $ury=0.0060 $lvl=9
*|S (VSS:13 0.1470 0.0000) // $llx=0.1410 $lly=-0.0060 $urx=0.1530 $ury=0.0060 $lvl=14
*|S (VSS:14 0.1890 0.0000) // $llx=0.1830 $lly=-0.0060 $urx=0.1950 $ury=0.0060 $lvl=9
*|S (VSS:15 0.1890 0.0000) // $llx=0.1830 $lly=-0.0060 $urx=0.1950 $ury=0.0060 $lvl=14
*|S (VSS:16 0.2310 0.0000) // $llx=0.2250 $lly=-0.0060 $urx=0.2370 $ury=0.0060 $lvl=9
*|S (VSS:17 0.2310 0.0000) // $llx=0.2250 $lly=-0.0060 $urx=0.2370 $ury=0.0060 $lvl=14
*|S (VSS:18 0.0630 0.0450) // $llx=0.0530 $lly=0.0450 $urx=0.0730 $ury=0.0450 $lvl=15
*|S (VSS:19 0.2410 0.0600) // $llx=0.2410 $lly=-0.0100 $urx=0.2520 $ury=0.1300 $lvl=20
*|S (VSS:20 0.2680 0.0600) // $llx=0.2680 $lly=-0.0100 $urx=0.2680 $ury=0.1300 $lvl=20
*|S (VSS:21 -0.0090 0.0000) // $llx=-0.0090 $lly=-0.0060 $urx=-0.0090 $ury=0.0060 $lvl=9
*|S (VSS:22 -0.0090 0.0000) // $llx=-0.0090 $lly=-0.0060 $urx=-0.0090 $ury=0.0060 $lvl=14
*|S (VSS:23 0.2610 0.0000) // $llx=0.2610 $lly=-0.0060 $urx=0.2610 $ury=0.0060 $lvl=14
*|S (VSS:24 0.0630 0.0300) // $llx=0.0530 $lly=0.0300 $urx=0.0730 $ury=0.0300 $lvl=15
*|S (VSS:25 0.2610 0.0000) // $llx=0.2610 $lly=-0.0060 $urx=0.2610 $ury=0.0060 $lvl=9
C2_1 MM8:BULK MM4:BULK 1.30836e-20
C2_2 MM8:BULK VDD:10 8.0247e-19
C2_3 MM8:BULK VDD:11 8.00298e-19
C2_4 MM8:BULK VDD:18 1.31201e-18
C2_5 VSS:9 VDD:18 3.31165e-20
C2_6 VSS:21 VDD:18 3.37305e-20
C2_7 VSS:9 VDD:25 1.12139e-19
C2_8 MM8:BULK VDD:31 5.8974e-20
C2_9 MM8:BULK VDD:33 1.43063e-18
C2_10 VSS:9 VDD:33 7.10305e-20
C2_11 VSS:21 VDD:33 7.01026e-19
C2_12 MM8:BULK VDD:34 1.31699e-18
C2_13 VSS:9 VDD:34 6.86755e-21
Cg2_14 MM8:BULK 0 8.68869e-18
Cg2_15 VSS:5 0 2.54573e-19
Cg2_16 VSS:9 0 2.89714e-18
Cg2_17 VSS:18 0 6.1716e-19
Cg2_18 VSS:19 0 1.05618e-18
Cg2_19 VSS:21 0 7.78733e-18
R2_1 VSS VSS:12 7.29167 $l=0.0210 $w=0.0120 $lvl=9
R2_2 VSS VSS:10 7.29167 $l=0.0210 $w=0.0120 $lvl=9
R2_3 MM8:BULK VSS:19 0.356491 $l=0.0730 $w=0.1400 $lvl=20
R2_4 MM6:SRC VSS:18 2.0 $l=0.0150 $w=0.0075 $lvl=16
R2_5 MM6:SRC VSS:5 2.0 $l=0.0150 $w=0.0075 $lvl=16
R2_6 MM6:SRC VSS:24 1.0 $l=0.0150 $w=0.0150 $lvl=16
R2_7 MM5:SRC VSS:18 2.0 $l=0.0150 $w=0.0075 $lvl=16
R2_8 MM5:SRC VSS:5 2.0 $l=0.0150 $w=0.0075 $lvl=16
R2_9 MM5:SRC VSS:24 1.0 $l=0.0150 $w=0.0150 $lvl=16
R2_10 VSS:5 VSS:24 1.87763 $l=0.0150 $w=0.0250 $lvl=16
R2_11 VSS:5 VSS:9 8.89907 $l=0.0150 $w=0.0200 $lvl=13
R2_12 VSS:6 VSS:7 63.5281 $a=0.00014400 $lvl=30
R2_13 VSS:6 VSS:21 10.4167 $l=0.0300 $w=0.0120 $lvl=9
R2_14 VSS:6 VSS:8 14.5833 $l=0.0420 $w=0.0120 $lvl=9
R2_15 VSS:7 VSS:22 39.6198 $l=0.0300 $w=0.0120 $lvl=14
R2_16 VSS:7 VSS:9 50.1851 $l=0.0420 $w=0.0120 $lvl=14
R2_17 VSS:8 VSS:9 31.764 $a=0.00028800 $lvl=31
R2_18 VSS:8 VSS:10 14.5833 $l=0.0420 $w=0.0120 $lvl=9
R2_19 VSS:9 VSS:11 50.1851 $l=0.0420 $w=0.0120 $lvl=14
R2_20 VSS:10 VSS:11 63.5281 $a=0.00014400 $lvl=30
R2_21 VSS:11 VSS:13 55.4677 $l=0.0420 $w=0.0120 $lvl=14
R2_22 VSS:12 VSS:13 63.5281 $a=0.00014400 $lvl=30
R2_23 VSS:12 VSS:14 14.5833 $l=0.0420 $w=0.0120 $lvl=9
R2_24 VSS:13 VSS:15 55.4677 $l=0.0420 $w=0.0120 $lvl=14
R2_25 VSS:14 VSS:15 63.5281 $a=0.00014400 $lvl=30
R2_26 VSS:14 VSS:16 14.5833 $l=0.0420 $w=0.0120 $lvl=9
R2_27 VSS:15 VSS:17 55.4677 $l=0.0420 $w=0.0120 $lvl=14
R2_28 VSS:16 VSS:17 63.5281 $a=0.00014400 $lvl=30
R2_29 VSS:16 VSS:25 10.4167 $l=0.0300 $w=0.0120 $lvl=9
R2_30 VSS:17 VSS:23 39.6198 $l=0.0300 $w=0.0120 $lvl=14
R2_31 VSS:18 VSS:24 1.87763 $l=0.0150 $w=0.0250 $lvl=16
R2_32 VSS:19 VSS:20 0.153571 $l=0.0270 $w=0.1400 $lvl=20
R2_33 VSS:15 MM8:BULK 0.01 $l=0.0366 $w=100.0000 $lvl=0

*|NET Y 4.50402e-05PF
*|P (Y B 0 0.1890 0.0600) // $llx=0.1880 $lly=0.0590 $urx=0.1900 $ury=0.0610 $lvl=33
*|I (MM9:DRN MM9 DRN B 0 0.2040 0.0300) // $llx=0.2040 $lly=0.0300 $urx=0.2040 $ury=0.0300 $lvl=16
*|I (MM8:DRN MM8 DRN B 0 0.1740 0.0300) // $llx=0.1740 $lly=0.0300 $urx=0.1740 $ury=0.0300 $lvl=16
*|I (MM4:DRN MM4 DRN B 0 0.2160 0.0900) // $llx=0.2160 $lly=0.0900 $urx=0.2160 $ury=0.0900 $lvl=17
*|I (MM2:DRN MM2 DRN B 0 0.1200 0.0900) // $llx=0.1200 $lly=0.0900 $urx=0.1200 $ury=0.0900 $lvl=17
*|I (MM1:DRN MM1 DRN B 0 0.0900 0.0900) // $llx=0.0900 $lly=0.0900 $urx=0.0900 $ury=0.0900 $lvl=17
*|S (Y:7 0.1050 0.0750) // $llx=0.0950 $lly=0.0750 $urx=0.1150 $ury=0.0750 $lvl=13
*|S (Y:8 0.1890 0.0150) // $llx=0.1790 $lly=0.0150 $urx=0.1990 $ury=0.0150 $lvl=13
*|S (Y:9 0.2310 0.0750) // $llx=0.2210 $lly=0.0750 $urx=0.2410 $ury=0.0750 $lvl=13
*|S (Y:10 0.1050 0.1050) // $llx=0.0950 $lly=0.1050 $urx=0.1150 $ury=0.1050 $lvl=13
*|S (Y:11 0.1890 0.0450) // $llx=0.1790 $lly=0.0450 $urx=0.1990 $ury=0.0450 $lvl=13
*|S (Y:12 0.2310 0.1050) // $llx=0.2210 $lly=0.1050 $urx=0.2410 $ury=0.1050 $lvl=13
*|S (Y:13 0.1050 0.0960) // $llx=0.0990 $lly=0.0900 $urx=0.1110 $ury=0.1020 $lvl=9
*|S (Y:14 0.1050 0.0960) // $llx=0.0950 $lly=0.0900 $urx=0.1150 $ury=0.1020 $lvl=13
*|S (Y:15 0.1890 0.0480) // $llx=0.1830 $lly=0.0420 $urx=0.1950 $ury=0.0540 $lvl=9
*|S (Y:16 0.1890 0.0480) // $llx=0.1790 $lly=0.0420 $urx=0.1990 $ury=0.0540 $lvl=13
*|S (Y:17 0.2310 0.0960) // $llx=0.2250 $lly=0.0900 $urx=0.2370 $ury=0.1020 $lvl=9
*|S (Y:18 0.2310 0.0960) // $llx=0.2210 $lly=0.0900 $urx=0.2410 $ury=0.1020 $lvl=13
*|S (Y:19 0.1890 0.0960) // $llx=0.1830 $lly=0.0900 $urx=0.1950 $ury=0.1020 $lvl=9
*|S (Y:20 0.1890 0.0420) // $llx=0.1830 $lly=0.0420 $urx=0.1950 $ury=0.0420 $lvl=9
*|S (Y:21 0.1890 0.0550) // $llx=0.1790 $lly=0.0550 $urx=0.1990 $ury=0.0550 $lvl=13
*|S (Y:22 0.1050 0.0900) // $llx=0.0950 $lly=0.0900 $urx=0.1150 $ury=0.0900 $lvl=15
*|S (Y:23 0.1890 0.0300) // $llx=0.1790 $lly=0.0300 $urx=0.1990 $ury=0.0300 $lvl=15
*|S (Y:24 0.2310 0.0900) // $llx=0.2210 $lly=0.0900 $urx=0.2410 $ury=0.0900 $lvl=15
*|S (Y:25 0.0990 0.0960) // $llx=0.0990 $lly=0.0900 $urx=0.0990 $ury=0.1020 $lvl=9
*|S (Y:26 0.2370 0.0960) // $llx=0.2370 $lly=0.0900 $urx=0.2370 $ury=0.1020 $lvl=9
C3_1 Y:19 VDD 5.06589e-21
C3_2 Y:8 MM4:BULK 5.18095e-19
C3_3 Y:19 MM4:BULK 5.95517e-20
C3_4 Y:20 MM4:BULK 9.78083e-20
C3_5 Y:19 VDD:11 1.45921e-19
C3_6 Y:20 VDD:11 2.53112e-20
C3_7 Y:19 VDD:18 4.87137e-19
C3_8 Y:20 VDD:18 3.68138e-20
C3_9 Y:19 VDD:29 7.53781e-20
C3_10 Y:7 VDD:30 2.59073e-20
C3_11 Y:10 VDD:30 2.91317e-20
C3_12 Y:19 VDD:30 5.26718e-20
C3_13 Y:19 VDD:31 3.62316e-20
C3_14 Y:19 VDD:32 6.6439e-20
C3_15 Y:19 VDD:33 1.27322e-17
C3_16 Y:20 VDD:33 1.01864e-19
C3_17 Y:7 MM8:BULK 8.30851e-19
C3_18 Y:10 MM8:BULK 8.25413e-19
C3_19 Y:19 MM8:BULK 2.35776e-19
C3_20 Y:20 MM8:BULK 2.03809e-19
C3_21 MM8:DRN VSS:9 6.72399e-19
C3_22 Y:19 VSS:21 4.06378e-19
C3_23 Y:20 VSS:21 1.35252e-19
Cg3_24 MM8:DRN 0 6.21225e-19
Cg3_25 MM4:DRN 0 5.13171e-19
Cg3_26 MM1:DRN 0 6.1716e-19
Cg3_27 Y:7 0 2.06568e-19
Cg3_28 Y:8 0 3.36637e-19
Cg3_29 Y:9 0 1.403e-19
Cg3_30 Y:10 0 2.446e-19
Cg3_31 Y:11 0 2.54729e-19
Cg3_32 Y:12 0 1.78742e-19
Cg3_33 Y:19 0 2.35224e-18
Cg3_34 Y:20 0 7.93856e-19
R3_1 Y Y:19 12.5 $l=0.0360 $w=0.0120 $lvl=9
R3_2 Y Y:15 4.16667 $l=0.0120 $w=0.0120 $lvl=9
R3_3 MM9:DRN Y:11 2.0 $l=0.0150 $w=0.0075 $lvl=16
R3_4 MM9:DRN Y:8 2.0 $l=0.0150 $w=0.0075 $lvl=16
R3_5 MM9:DRN Y:23 1.0 $l=0.0150 $w=0.0150 $lvl=16
R3_6 MM8:DRN Y:11 2.0 $l=0.0150 $w=0.0075 $lvl=16
R3_7 MM8:DRN Y:8 2.0 $l=0.0150 $w=0.0075 $lvl=16
R3_8 MM8:DRN Y:23 1.0 $l=0.0150 $w=0.0150 $lvl=16
R3_9 MM4:DRN Y:9 2.0 $l=0.0150 $w=0.0075 $lvl=17
R3_10 MM4:DRN Y:24 1.42857 $l=0.0150 $w=0.0105 $lvl=17
R3_11 MM4:DRN Y:12 3.33333 $l=0.0150 $w=0.0045 $lvl=17
R3_12 MM4:DRN Y:18 2.0 $l=0.0150 $w=0.0075 $lvl=17
R3_13 MM2:DRN Y:7 2.0 $l=0.0150 $w=0.0075 $lvl=17
R3_14 MM2:DRN Y:22 1.42857 $l=0.0150 $w=0.0105 $lvl=17
R3_15 MM2:DRN Y:10 3.33333 $l=0.0150 $w=0.0045 $lvl=17
R3_16 MM2:DRN Y:14 2.0 $l=0.0150 $w=0.0075 $lvl=17
R3_17 MM1:DRN Y:7 2.0 $l=0.0150 $w=0.0075 $lvl=17
R3_18 MM1:DRN Y:22 1.42857 $l=0.0150 $w=0.0105 $lvl=17
R3_19 MM1:DRN Y:10 3.33333 $l=0.0150 $w=0.0045 $lvl=17
R3_20 MM1:DRN Y:14 2.0 $l=0.0150 $w=0.0075 $lvl=17
R3_21 Y:7 Y:14 12.4587 $l=0.0210 $w=0.0200 $lvl=13
R3_22 Y:7 Y:22 1.87763 $l=0.0150 $w=0.0250 $lvl=17
R3_23 Y:8 Y:11 17.7981 $l=0.0300 $w=0.0200 $lvl=13
R3_24 Y:8 Y:23 1.87763 $l=0.0150 $w=0.0250 $lvl=16
R3_25 Y:9 Y:18 12.4587 $l=0.0210 $w=0.0200 $lvl=13
R3_26 Y:9 Y:24 2.73284 $l=0.0150 $w=0.0225 $lvl=17
R3_27 Y:10 Y:14 1.34618 $l=0.0090 $w=0.0250 $lvl=17
R3_28 Y:11 Y:16 1.77981 $l=0.0030 $w=0.0200 $lvl=13
R3_29 Y:11 Y:23 3.0 $l=0.0150 $w=0.0050 $lvl=16
R3_30 Y:12 Y:18 2.15025 $l=0.0090 $w=0.0225 $lvl=17
R3_31 Y:13 Y:14 63.5281 $a=0.00014400 $lvl=31
R3_32 Y:13 Y:25 2.08333 $l=0.0060 $w=0.0120 $lvl=9
R3_33 Y:13 Y:19 29.1667 $l=0.0840 $w=0.0120 $lvl=9
R3_34 Y:14 Y:22 1.2 $l=0.0060 $w=0.0050 $lvl=17
R3_35 Y:15 Y:16 63.5281 $a=0.00014400 $lvl=31
R3_36 Y:15 Y:20 2.08333 $l=0.0060 $w=0.0120 $lvl=9
R3_37 Y:16 Y:21 4.1529 $l=0.0070 $w=0.0200 $lvl=13
R3_38 Y:17 Y:18 63.5281 $a=0.00014400 $lvl=31
R3_39 Y:17 Y:19 14.5833 $l=0.0420 $w=0.0120 $lvl=9
R3_40 Y:17 Y:26 2.08333 $l=0.0060 $w=0.0120 $lvl=9
R3_41 Y:18 Y:24 2.4 $l=0.0060 $w=0.0025 $lvl=17

*|NET A 1.68768e-05PF
*|P (A B 0 0.0210 0.0600) // $llx=0.0150 $lly=0.0540 $urx=0.0270 $ury=0.0660 $lvl=33
*|I (MM0:GATE MM0 GATE I 3.6e-19 0.0420 0.0900) // $llx=0.0420 $lly=0.0900 $urx=0.0420 $ury=0.0900 $lvl=12
*|I (MM5:GATE MM5 GATE I 3.6e-19 0.0420 0.0300) // $llx=0.0420 $lly=0.0300 $urx=0.0420 $ury=0.0300 $lvl=11
*|S (A:4 0.0420 0.0150) // $llx=0.0360 $lly=0.0150 $urx=0.0480 $ury=0.0150 $lvl=10
*|S (A:5 0.0420 0.0450) // $llx=0.0360 $lly=0.0450 $urx=0.0480 $ury=0.0450 $lvl=11
*|S (A:6 0.0420 0.0750) // $llx=0.0360 $lly=0.0750 $urx=0.0480 $ury=0.0750 $lvl=10
*|S (A:7 0.0420 0.1050) // $llx=0.0360 $lly=0.1050 $urx=0.0480 $ury=0.1050 $lvl=12
*|S (A:8 0.0420 0.1100) // $llx=0.0360 $lly=0.1100 $urx=0.0480 $ury=0.1100 $lvl=10
*|S (A:9 0.0420 0.0600) // $llx=0.0360 $lly=0.0540 $urx=0.0480 $ury=0.0660 $lvl=10
*|S (A:10 0.0210 0.0600) // $llx=0.0150 $lly=0.0540 $urx=0.0270 $ury=0.0660 $lvl=14
*|S (A:11 0.0210 0.0420) // $llx=0.0150 $lly=0.0420 $urx=0.0270 $ury=0.0420 $lvl=9
*|S (A:12 0.0420 0.0100) // $llx=0.0360 $lly=0.0100 $urx=0.0480 $ury=0.0100 $lvl=10
*|S (A:13 0.0150 0.0600) // $llx=0.0150 $lly=0.0540 $urx=0.0150 $ury=0.0660 $lvl=14
*|S (A:14 0.0210 0.1020) // $llx=0.0150 $lly=0.1020 $urx=0.0270 $ury=0.1020 $lvl=9
C4_1 A:11 VDD:10 1.0966e-19
C4_2 A:6 VDD:18 5.98297e-20
C4_3 A:7 VDD:18 2.30443e-19
C4_4 A:8 VDD:18 1.49788e-19
C4_5 A:9 VDD:18 2.84954e-19
C4_6 A:11 VDD:23 3.44894e-20
C4_7 A:9 VDD:24 2.11698e-19
C4_8 A:11 VDD:24 1.11651e-19
C4_9 A:9 VDD:25 1.14344e-20
C4_10 A:11 VDD:25 3.97424e-20
C4_11 A:6 VDD:33 6.22711e-21
C4_12 A:7 VDD:33 3.37804e-20
C4_13 A:8 VDD:33 2.9859e-20
C4_14 A:9 VDD:33 5.26832e-20
C4_15 A:11 VDD:33 2.05949e-18
C4_16 A:9 VDD:34 2.21646e-18
C4_17 A:11 VDD:34 3.44814e-19
C4_18 A:11 MM8:BULK 5.60577e-19
C4_19 A:6 VSS:9 4.30793e-20
C4_20 A:9 VSS:9 3.78951e-21
C4_21 A:11 VSS:21 1.16709e-19
Cg4_22 A:4 0 6.11935e-20
Cg4_23 A:5 0 2.43715e-19
Cg4_24 A:6 0 2.72053e-19
Cg4_25 A:7 0 3.76885e-19
Cg4_26 A:8 0 1.73789e-19
Cg4_27 A:9 0 1.8758e-19
Cg4_28 A:11 0 3.32397e-18
R4_1 A A:11 6.25 $l=0.0180 $w=0.0120 $lvl=9
R4_2 A A:14 14.5833 $l=0.0420 $w=0.0120 $lvl=9
R4_3 A A:10 63.5281 $a=0.00014400 $lvl=30
R4_4 MM0:GATE A:7 6.57895 $l=0.0150 $w=0.0120 $lvl=12
R4_5 MM0:GATE A:6 6.57895 $l=0.0150 $w=0.0120 $lvl=12
R4_6 MM5:GATE A:5 6.57895 $l=0.0150 $w=0.0120 $lvl=11
R4_7 MM5:GATE A:4 6.57895 $l=0.0150 $w=0.0120 $lvl=11
R4_8 A:4 A:12 2.19298 $l=0.0050 $w=0.0120 $lvl=10
R4_9 A:5 A:9 6.57895 $l=0.0150 $w=0.0120 $lvl=10
R4_10 A:6 A:9 6.57895 $l=0.0150 $w=0.0120 $lvl=10
R4_11 A:7 A:8 2.19298 $l=0.0050 $w=0.0120 $lvl=10
R4_12 A:9 A:10 27.7339 $l=0.0210 $w=0.0120 $lvl=14
R4_13 A:10 A:13 7.92396 $l=0.0060 $w=0.0120 $lvl=14

*|NET B 1.61716e-05PF
*|P (B B 0 0.0630 0.0600) // $llx=0.0570 $lly=0.0540 $urx=0.0690 $ury=0.0660 $lvl=33
*|I (MM6:GATE MM6 GATE I 3.6e-19 0.0840 0.0300) // $llx=0.0840 $lly=0.0300 $urx=0.0840 $ury=0.0300 $lvl=11
*|I (MM1:GATE MM1 GATE I 3.6e-19 0.0840 0.0900) // $llx=0.0840 $lly=0.0900 $urx=0.0840 $ury=0.0900 $lvl=12
*|S (B:4 0.0840 0.0150) // $llx=0.0780 $lly=0.0150 $urx=0.0900 $ury=0.0150 $lvl=10
*|S (B:5 0.0840 0.0450) // $llx=0.0780 $lly=0.0450 $urx=0.0900 $ury=0.0450 $lvl=11
*|S (B:6 0.0840 0.0750) // $llx=0.0780 $lly=0.0750 $urx=0.0900 $ury=0.0750 $lvl=10
*|S (B:7 0.0840 0.1050) // $llx=0.0780 $lly=0.1050 $urx=0.0900 $ury=0.1050 $lvl=12
*|S (B:8 0.0840 0.1100) // $llx=0.0780 $lly=0.1100 $urx=0.0900 $ury=0.1100 $lvl=10
*|S (B:9 0.0840 0.0600) // $llx=0.0780 $lly=0.0540 $urx=0.0900 $ury=0.0660 $lvl=10
*|S (B:10 0.0630 0.0600) // $llx=0.0570 $lly=0.0540 $urx=0.0690 $ury=0.0660 $lvl=14
*|S (B:11 0.0630 0.0420) // $llx=0.0570 $lly=0.0420 $urx=0.0690 $ury=0.0420 $lvl=9
*|S (B:12 0.0840 0.0100) // $llx=0.0780 $lly=0.0100 $urx=0.0900 $ury=0.0100 $lvl=10
*|S (B:13 0.0570 0.0600) // $llx=0.0570 $lly=0.0540 $urx=0.0570 $ury=0.0660 $lvl=14
*|S (B:14 0.0630 0.1020) // $llx=0.0570 $lly=0.1020 $urx=0.0690 $ury=0.1020 $lvl=9
C5_1 B:11 VDD:10 8.43706e-20
C5_2 B:6 VDD:18 5.98297e-20
C5_3 B:7 VDD:18 2.30443e-19
C5_4 B:8 VDD:18 1.49788e-19
C5_5 B:9 VDD:18 2.86326e-19
C5_6 B:11 VDD:26 2.45186e-20
C5_7 B:9 VDD:27 1.14344e-20
C5_8 B:11 VDD:27 4.50301e-21
C5_9 B:6 VDD:33 6.22711e-21
C5_10 B:7 VDD:33 3.37804e-20
C5_11 B:8 VDD:33 2.9859e-20
C5_12 B:9 VDD:33 7.13695e-20
C5_13 B:11 VDD:33 2.26406e-18
C5_14 B:11 VDD:34 9.99231e-20
C5_15 B:11 MM8:BULK 2.98829e-19
C5_16 B:11 VSS:5 1.46301e-20
C5_17 B:6 VSS:9 4.30793e-20
C5_18 B:9 VSS:9 3.78951e-21
C5_19 B:11 VSS:9 2.58764e-20
C5_20 B:11 VSS:18 1.93571e-20
C5_21 B:11 VSS:21 1.88231e-19
C5_22 B:11 Y:19 1.03914e-18
C5_23 B:11 Y:20 4.72515e-20
C5_24 B:11 A:11 2.98988e-18
Cg5_25 B:4 0 6.11935e-20
Cg5_26 B:5 0 2.43715e-19
Cg5_27 B:6 0 2.72053e-19
Cg5_28 B:7 0 3.76885e-19
Cg5_29 B:8 0 1.73789e-19
Cg5_30 B:9 0 1.94912e-19
Cg5_31 B:11 0 1.72432e-18
R5_1 B B:11 6.25 $l=0.0180 $w=0.0120 $lvl=9
R5_2 B B:14 14.5833 $l=0.0420 $w=0.0120 $lvl=9
R5_3 B B:10 63.5281 $a=0.00014400 $lvl=30
R5_4 MM6:GATE B:5 6.57895 $l=0.0150 $w=0.0120 $lvl=11
R5_5 MM6:GATE B:4 6.57895 $l=0.0150 $w=0.0120 $lvl=11
R5_6 MM1:GATE B:7 6.57895 $l=0.0150 $w=0.0120 $lvl=12
R5_7 MM1:GATE B:6 6.57895 $l=0.0150 $w=0.0120 $lvl=12
R5_8 B:4 B:12 2.19298 $l=0.0050 $w=0.0120 $lvl=10
R5_9 B:5 B:9 6.57895 $l=0.0150 $w=0.0120 $lvl=10
R5_10 B:6 B:9 6.57895 $l=0.0150 $w=0.0120 $lvl=10
R5_11 B:7 B:8 2.19298 $l=0.0050 $w=0.0120 $lvl=10
R5_12 B:9 B:10 27.7339 $l=0.0210 $w=0.0120 $lvl=14
R5_13 B:10 B:13 7.92396 $l=0.0060 $w=0.0120 $lvl=14

*|NET E 1.33795e-05PF
*|P (E B 0 0.1050 0.0600) // $llx=0.0990 $lly=0.0540 $urx=0.1110 $ury=0.0660 $lvl=33
*|I (MM7:GATE MM7 GATE I 3.6e-19 0.1260 0.0300) // $llx=0.1260 $lly=0.0300 $urx=0.1260 $ury=0.0300 $lvl=11
*|I (MM2:GATE MM2 GATE I 3.6e-19 0.1260 0.0900) // $llx=0.1260 $lly=0.0900 $urx=0.1260 $ury=0.0900 $lvl=12
*|S (E:4 0.1260 0.0150) // $llx=0.1200 $lly=0.0150 $urx=0.1320 $ury=0.0150 $lvl=10
*|S (E:5 0.1260 0.0450) // $llx=0.1200 $lly=0.0450 $urx=0.1320 $ury=0.0450 $lvl=11
*|S (E:6 0.1260 0.0750) // $llx=0.1200 $lly=0.0750 $urx=0.1320 $ury=0.0750 $lvl=10
*|S (E:7 0.1260 0.1050) // $llx=0.1200 $lly=0.1050 $urx=0.1320 $ury=0.1050 $lvl=12
*|S (E:8 0.1260 0.1100) // $llx=0.1200 $lly=0.1100 $urx=0.1320 $ury=0.1100 $lvl=10
*|S (E:9 0.1260 0.0600) // $llx=0.1200 $lly=0.0540 $urx=0.1320 $ury=0.0660 $lvl=10
*|S (E:10 0.1050 0.0600) // $llx=0.0990 $lly=0.0540 $urx=0.1110 $ury=0.0660 $lvl=14
*|S (E:11 0.1050 0.0420) // $llx=0.0990 $lly=0.0420 $urx=0.1110 $ury=0.0420 $lvl=9
*|S (E:12 0.1260 0.0100) // $llx=0.1200 $lly=0.0100 $urx=0.1320 $ury=0.0100 $lvl=10
*|S (E:13 0.0990 0.0600) // $llx=0.0990 $lly=0.0540 $urx=0.0990 $ury=0.0660 $lvl=14
*|S (E:14 0.1050 0.0780) // $llx=0.0990 $lly=0.0780 $urx=0.1110 $ury=0.0780 $lvl=9
C6_1 E:9 VDD 1.14344e-20
C6_2 E:11 VDD 3.27822e-20
C6_3 E:6 VDD:18 5.98297e-20
C6_4 E:7 VDD:18 2.25945e-19
C6_5 E:8 VDD:18 1.49656e-19
C6_6 E:9 VDD:18 2.62776e-19
C6_7 E:7 VDD:33 3.83923e-20
C6_8 E:8 VDD:33 4.29081e-20
C6_9 E:11 VDD:33 1.53574e-19
C6_10 E:11 MM8:BULK 3.09279e-19
C6_11 E:11 VSS:5 2.53112e-20
C6_12 E:6 VSS:9 4.65718e-20
C6_13 E:9 VSS:9 3.78951e-21
C6_14 E:11 VSS:9 2.3666e-20
C6_15 E:11 VSS:21 1.53574e-19
C6_16 E:9 MM1:DRN 7.07224e-19
C6_17 E:11 MM1:DRN 1.93571e-20
C6_18 E:11 Y:7 2.58764e-20
C6_19 E:11 Y:10 1.46301e-20
C6_20 E:4 Y:19 4.72577e-21
C6_21 E:6 Y:19 6.17839e-20
C6_22 E:7 Y:19 6.08171e-20
C6_23 E:8 Y:19 1.61166e-20
C6_24 E:9 Y:19 1.42783e-19
C6_25 E:11 Y:19 2.10607e-18
C6_26 E:11 Y:20 1.95252e-19
C6_27 E:11 B:11 1.88536e-18
Cg6_28 E:4 0 6.03295e-20
Cg6_29 E:5 0 2.43715e-19
Cg6_30 E:6 0 2.72053e-19
Cg6_31 E:7 0 3.68393e-19
Cg6_32 E:8 0 1.74064e-19
Cg6_33 E:9 0 1.57033e-19
Cg6_34 E:11 0 1.29528e-18
R6_1 E E:11 6.25 $l=0.0180 $w=0.0120 $lvl=9
R6_2 E E:14 6.25 $l=0.0180 $w=0.0120 $lvl=9
R6_3 E E:10 63.5281 $a=0.00014400 $lvl=30
R6_4 MM7:GATE E:5 6.57895 $l=0.0150 $w=0.0120 $lvl=11
R6_5 MM7:GATE E:4 6.57895 $l=0.0150 $w=0.0120 $lvl=11
R6_6 MM2:GATE E:7 6.57895 $l=0.0150 $w=0.0120 $lvl=12
R6_7 MM2:GATE E:6 6.57895 $l=0.0150 $w=0.0120 $lvl=12
R6_8 E:4 E:12 2.19298 $l=0.0050 $w=0.0120 $lvl=10
R6_9 E:5 E:9 6.57895 $l=0.0150 $w=0.0120 $lvl=10
R6_10 E:6 E:9 6.57895 $l=0.0150 $w=0.0120 $lvl=10
R6_11 E:7 E:8 2.19298 $l=0.0050 $w=0.0120 $lvl=10
R6_12 E:9 E:10 27.7339 $l=0.0210 $w=0.0120 $lvl=14
R6_13 E:10 E:13 7.92396 $l=0.0060 $w=0.0120 $lvl=14

*|NET C 1.42245e-05PF
*|P (C B 0 0.1470 0.0600) // $llx=0.1410 $lly=0.0540 $urx=0.1530 $ury=0.0660 $lvl=33
*|I (MM8:GATE MM8 GATE I 3.6e-19 0.1680 0.0300) // $llx=0.1680 $lly=0.0300 $urx=0.1680 $ury=0.0300 $lvl=11
*|I (MM3:GATE MM3 GATE I 3.6e-19 0.1680 0.0900) // $llx=0.1680 $lly=0.0900 $urx=0.1680 $ury=0.0900 $lvl=12
*|S (C:4 0.1680 0.0150) // $llx=0.1620 $lly=0.0150 $urx=0.1740 $ury=0.0150 $lvl=10
*|S (C:5 0.1680 0.0450) // $llx=0.1620 $lly=0.0450 $urx=0.1740 $ury=0.0450 $lvl=11
*|S (C:6 0.1680 0.0750) // $llx=0.1620 $lly=0.0750 $urx=0.1740 $ury=0.0750 $lvl=10
*|S (C:7 0.1680 0.1050) // $llx=0.1620 $lly=0.1050 $urx=0.1740 $ury=0.1050 $lvl=12
*|S (C:8 0.1680 0.1100) // $llx=0.1620 $lly=0.1100 $urx=0.1740 $ury=0.1100 $lvl=10
*|S (C:9 0.1680 0.0600) // $llx=0.1620 $lly=0.0540 $urx=0.1740 $ury=0.0660 $lvl=10
*|S (C:10 0.1470 0.0600) // $llx=0.1410 $lly=0.0540 $urx=0.1530 $ury=0.0660 $lvl=14
*|S (C:11 0.1470 0.0420) // $llx=0.1410 $lly=0.0420 $urx=0.1530 $ury=0.0420 $lvl=9
*|S (C:12 0.1680 0.0100) // $llx=0.1620 $lly=0.0100 $urx=0.1740 $ury=0.0100 $lvl=10
*|S (C:13 0.1410 0.0600) // $llx=0.1410 $lly=0.0540 $urx=0.1410 $ury=0.0660 $lvl=14
*|S (C:14 0.1470 0.0780) // $llx=0.1410 $lly=0.0780 $urx=0.1530 $ury=0.0780 $lvl=9
C7_1 C:11 VDD:11 1.21845e-20
C7_2 C:6 VDD:18 5.97128e-20
C7_3 C:7 VDD:18 2.25945e-19
C7_4 C:8 VDD:18 1.49656e-19
C7_5 C:9 VDD:18 2.62776e-19
C7_6 C:11 VDD:18 1.1259e-19
C7_7 C:11 VDD:28 4.15188e-20
C7_8 C:9 VDD:29 1.14344e-20
C7_9 C:9 VDD:30 7.07224e-19
C7_10 C:11 VDD:30 1.93571e-20
C7_11 C:7 VDD:33 3.83923e-20
C7_12 C:8 VDD:33 4.29081e-20
C7_13 C:11 VDD:33 1.69689e-19
C7_14 C:11 MM8:BULK 3.20541e-19
C7_15 C:4 VSS:9 5.3734e-19
C7_16 C:5 VSS:9 9.26205e-21
C7_17 C:11 VSS:21 1.69689e-19
C7_18 C:11 Y:7 3.68138e-20
C7_19 C:11 Y:10 2.53112e-20
C7_20 C:6 Y:19 7.41946e-20
C7_21 C:7 Y:19 7.47246e-20
C7_22 C:8 Y:19 1.74897e-20
C7_23 C:9 Y:19 1.42783e-19
C7_24 C:11 Y:19 2.10607e-18
C7_25 C:6 Y:20 3.6854e-20
C7_26 C:9 Y:20 9.19718e-20
C7_27 C:11 Y:20 1.78057e-18
C7_28 C:11 E:11 1.85164e-18
Cg7_29 C:4 0 4.06191e-20
Cg7_30 C:5 0 2.43715e-19
Cg7_31 C:6 0 2.71935e-19
Cg7_32 C:7 0 3.68393e-19
Cg7_33 C:8 0 1.74064e-19
Cg7_34 C:9 0 1.57033e-19
Cg7_35 C:11 0 1.49255e-18
R7_1 C C:11 6.25 $l=0.0180 $w=0.0120 $lvl=9
R7_2 C C:14 6.25 $l=0.0180 $w=0.0120 $lvl=9
R7_3 C C:10 63.5281 $a=0.00014400 $lvl=30
R7_4 MM8:GATE C:5 6.57895 $l=0.0150 $w=0.0120 $lvl=11
R7_5 MM8:GATE C:4 6.57895 $l=0.0150 $w=0.0120 $lvl=11
R7_6 MM3:GATE C:7 6.57895 $l=0.0150 $w=0.0120 $lvl=12
R7_7 MM3:GATE C:6 6.57895 $l=0.0150 $w=0.0120 $lvl=12
R7_8 C:4 C:12 2.19298 $l=0.0050 $w=0.0120 $lvl=10
R7_9 C:5 C:9 6.57895 $l=0.0150 $w=0.0120 $lvl=10
R7_10 C:6 C:9 6.57895 $l=0.0150 $w=0.0120 $lvl=10
R7_11 C:7 C:8 2.19298 $l=0.0050 $w=0.0120 $lvl=10
R7_12 C:9 C:10 27.7339 $l=0.0210 $w=0.0120 $lvl=14
R7_13 C:10 C:13 7.92396 $l=0.0060 $w=0.0120 $lvl=14

*|NET D 1.7469e-05PF
*|P (D B 0 0.2310 0.0600) // $llx=0.2250 $lly=0.0540 $urx=0.2370 $ury=0.0660 $lvl=33
*|I (MM9:GATE MM9 GATE I 3.6e-19 0.2100 0.0300) // $llx=0.2100 $lly=0.0300 $urx=0.2100 $ury=0.0300 $lvl=11
*|I (MM4:GATE MM4 GATE I 3.6e-19 0.2100 0.0900) // $llx=0.2100 $lly=0.0900 $urx=0.2100 $ury=0.0900 $lvl=12
*|S (D:4 0.2100 0.0150) // $llx=0.2040 $lly=0.0150 $urx=0.2160 $ury=0.0150 $lvl=10
*|S (D:5 0.2100 0.0450) // $llx=0.2040 $lly=0.0450 $urx=0.2160 $ury=0.0450 $lvl=11
*|S (D:6 0.2100 0.0750) // $llx=0.2040 $lly=0.0750 $urx=0.2160 $ury=0.0750 $lvl=10