*
*|DSPF 1.3
*|DESIGN XOR2x1
*|DATE "Tue Oct 15 21:11:35 2024"
*|VENDOR "Synopsys"
*|PROGRAM "StarRC"
*|VERSION "V-2023.12-SP5"
*|DIVIDER .
*|DELIMITER :
**FORMAT SPF
*

** COMMENTS

** OPERATING_TEMPERATURE 25
** GLOBAL_TEMPERATURE 25
** 
** TCAD_GRD_FILE /home/gtcad/ctsai314/ITF_Modification/0_reference/3nm_FF_noBPR.nxtgrd
**   TCAD_TIME_STAMP Tue Sep 3 21:56:12 2024
**   TCADGRD_VERSION 89

.SUBCKT XOR2x1 A B VDD VSS Y

*|GROUND_NET 0

*LAYER_MAP

*0 SUBSTRATE
*1 m9    ITF=M9
*2 m8    ITF=M8
*3 m7    ITF=M7
*4 m6    ITF=M6
*5 m5    ITF=M5
*6 m4    ITF=M4
*7 m3    ITF=M3
*8 m2    ITF=M2
*9 m1    ITF=M1
*10 fpoly    ITF=Gate
*11 ngate    ITF=Gate
*12 pgate    ITF=Gate
*13 lisd    ITF=LISD
*14 lig    ITF=LIG
*15 sdt    ITF=SDT
*16 nsd    ITF=Active
*17 psd    ITF=Active
*18 pselect    ITF=Active
*19 well    ITF=Active
*20 sub    ITF=Active
*21 nselect    ITF=Active
*22 v8    ITF=V8
*23 v7    ITF=V7
*24 v6    ITF=V6
*25 v5    ITF=V5
*26 v4    ITF=V4
*27 v3    ITF=V3
*28 v2    ITF=V2
*29 v1    ITF=V1
*30 v0lig    ITF=V0LIG
*31 v0lisd    ITF=V0LISD
*32 well_pin    ITF=Active
*33 M1_pin    ITF=M1
*34 M2_pin    ITF=M2
*35 M3_pin    ITF=M3
*36 M4_pin    ITF=M4
*37 M5_pin    ITF=M5
*38 M6_pin    ITF=M6
*39 M7_pin    ITF=M7
*40 M8_pin    ITF=M8
*41 M9_pin    ITF=M9

*|NET A 3.62312e-05PF
*|P (A B 0 0.0210 0.0600) // $llx=0.0150 $lly=0.0540 $urx=0.0270 $ury=0.0660 $lvl=33
*|I (MM5:GATE MM5 GATE I 3.6e-19 0.1260 0.0900) // $llx=0.1260 $lly=0.0900 $urx=0.1260 $ury=0.0900 $lvl=12
*|I (MM9:GATE MM9 GATE I 3.6e-19 0.0420 0.0900) // $llx=0.0420 $lly=0.0900 $urx=0.0420 $ury=0.0900 $lvl=12
*|I (MM0:GATE MM0 GATE I 3.6e-19 0.1260 0.0300) // $llx=0.1260 $lly=0.0300 $urx=0.1260 $ury=0.0300 $lvl=11
*|I (MM10:GATE MM10 GATE I 3.6e-19 0.0420 0.0300) // $llx=0.0420 $lly=0.0300 $urx=0.0420 $ury=0.0300 $lvl=11
*|S (A:6 0.0420 0.0150) // $llx=0.0360 $lly=0.0150 $urx=0.0480 $ury=0.0150 $lvl=10
*|S (A:7 0.0420 0.0450) // $llx=0.0360 $lly=0.0450 $urx=0.0480 $ury=0.0450 $lvl=11
*|S (A:8 0.0420 0.0750) // $llx=0.0360 $lly=0.0750 $urx=0.0480 $ury=0.0750 $lvl=10
*|S (A:9 0.0420 0.1050) // $llx=0.0360 $lly=0.1050 $urx=0.0480 $ury=0.1050 $lvl=12
*|S (A:10 0.0420 0.1100) // $llx=0.0360 $lly=0.1100 $urx=0.0480 $ury=0.1100 $lvl=10
*|S (A:11 0.1260 0.0150) // $llx=0.1200 $lly=0.0150 $urx=0.1320 $ury=0.0150 $lvl=10
*|S (A:12 0.1260 0.0750) // $llx=0.1200 $lly=0.0750 $urx=0.1320 $ury=0.0750 $lvl=10
*|S (A:13 0.1260 0.1050) // $llx=0.1200 $lly=0.1050 $urx=0.1320 $ury=0.1050 $lvl=12
*|S (A:14 0.1260 0.1100) // $llx=0.1200 $lly=0.1100 $urx=0.1320 $ury=0.1100 $lvl=10
*|S (A:15 0.0420 0.0600) // $llx=0.0360 $lly=0.0540 $urx=0.0480 $ury=0.0660 $lvl=10
*|S (A:16 0.0210 0.0600) // $llx=0.0150 $lly=0.0540 $urx=0.0270 $ury=0.0660 $lvl=14
*|S (A:17 0.1260 0.0480) // $llx=0.1200 $lly=0.0420 $urx=0.1320 $ury=0.0540 $lvl=9
*|S (A:18 0.1260 0.0480) // $llx=0.1200 $lly=0.0420 $urx=0.1320 $ury=0.0540 $lvl=10
*|S (A:19 0.1320 0.0480) // $llx=0.1320 $lly=0.0420 $urx=0.1320 $ury=0.0540 $lvl=9
*|S (A:20 0.0210 0.1020) // $llx=0.0150 $lly=0.1020 $urx=0.0270 $ury=0.1020 $lvl=9
*|S (A:21 0.0420 0.0100) // $llx=0.0360 $lly=0.0100 $urx=0.0480 $ury=0.0100 $lvl=10
*|S (A:22 0.1260 0.0100) // $llx=0.1200 $lly=0.0100 $urx=0.1320 $ury=0.0100 $lvl=10
*|S (A:23 0.0150 0.0600) // $llx=0.0150 $lly=0.0540 $urx=0.0150 $ury=0.0660 $lvl=14
*|S (A:24 0.0210 0.0180) // $llx=0.0150 $lly=0.0180 $urx=0.0270 $ury=0.0180 $lvl=9
Cg1_1 A 0 1.1836e-18
Cg1_2 A:6 0 6.03795e-20
Cg1_3 A:7 0 2.43715e-19
Cg1_4 A:8 0 2.71888e-19
Cg1_5 A:9 0 3.75738e-19
Cg1_6 A:10 0 1.72643e-19
Cg1_7 A:11 0 6.11935e-20
Cg1_8 A:12 0 2.73484e-19
Cg1_9 A:13 0 3.68393e-19
Cg1_10 A:14 0 1.74064e-19
Cg1_11 A:15 0 1.8682e-19
Cg1_12 A:18 0 2.86523e-19
Cg1_13 A:19 0 2.88771e-18
Cg1_14 A:20 0 2.37591e-18
R1_1 A A:16 63.5281 $a=0.00014400 $lvl=30
R1_2 A A:17 36.4583 $l=0.1050 $w=0.0120 $lvl=9
R1_3 A A:20 16.3194 $l=0.0420 $w=0.0120 $lvl=9
R1_4 A A:24 10.4167 $l=0.0420 $w=0.0120 $lvl=9
R1_5 MM5:GATE A:13 6.57895 $l=0.0150 $w=0.0120 $lvl=12
R1_6 MM5:GATE A:12 6.57895 $l=0.0150 $w=0.0120 $lvl=12
R1_7 MM9:GATE A:9 6.57895 $l=0.0150 $w=0.0120 $lvl=12
R1_8 MM9:GATE A:8 6.57895 $l=0.0150 $w=0.0120 $lvl=12
R1_9 MM0:GATE A:18 6.57895 $l=0.0180 $w=0.0120 $lvl=11
R1_10 MM0:GATE A:11 6.57895 $l=0.0150 $w=0.0120 $lvl=11
R1_11 MM10:GATE A:7 6.57895 $l=0.0150 $w=0.0120 $lvl=11
R1_12 MM10:GATE A:6 6.57895 $l=0.0150 $w=0.0120 $lvl=11
R1_13 A:6 A:21 2.19298 $l=0.0050 $w=0.0120 $lvl=10
R1_14 A:7 A:15 6.57895 $l=0.0150 $w=0.0120 $lvl=10
R1_15 A:8 A:15 6.57895 $l=0.0150 $w=0.0120 $lvl=10
R1_16 A:9 A:10 2.19298 $l=0.0050 $w=0.0120 $lvl=10
R1_17 A:11 A:22 2.19298 $l=0.0050 $w=0.0120 $lvl=10
R1_18 A:12 A:18 11.8421 $l=0.0270 $w=0.0120 $lvl=10
R1_19 A:13 A:14 2.19298 $l=0.0050 $w=0.0120 $lvl=10
R1_20 A:15 A:16 27.7339 $l=0.0210 $w=0.0120 $lvl=14
R1_21 A:16 A:23 7.92396 $l=0.0060 $w=0.0120 $lvl=14
R1_22 A:17 A:18 63.5281 $a=0.00014400 $lvl=30
R1_23 A:17 A:19 2.08333 $l=0.0060 $w=0.0120 $lvl=9

*|NET B 6.10543e-05PF
*|P (B B 0 0.3570 0.0600) // $llx=0.3510 $lly=0.0540 $urx=0.3630 $ury=0.0660 $lvl=33
*|I (MM11:GATE MM11 GATE I 3.6e-19 0.3360 0.0300) // $llx=0.3360 $lly=0.0300 $urx=0.3360 $ury=0.0300 $lvl=11
*|I (MM1:GATE MM1 GATE I 3.6e-19 0.1680 0.0300) // $llx=0.1680 $lly=0.0300 $urx=0.1680 $ury=0.0300 $lvl=11
*|I (MM8:GATE MM8 GATE I 3.6e-19 0.3360 0.0900) // $llx=0.3360 $lly=0.0900 $urx=0.3360 $ury=0.0900 $lvl=12
*|I (MM7:GATE MM7 GATE I 3.6e-19 0.2520 0.0900) // $llx=0.2520 $lly=0.0900 $urx=0.2520 $ury=0.0900 $lvl=12
*|S (B:6 0.1680 0.0150) // $llx=0.1620 $lly=0.0150 $urx=0.1740 $ury=0.0150 $lvl=10
*|S (B:7 0.2520 0.1050) // $llx=0.2460 $lly=0.1050 $urx=0.2580 $ury=0.1050 $lvl=12
*|S (B:8 0.2520 0.1100) // $llx=0.2460 $lly=0.1100 $urx=0.2580 $ury=0.1100 $lvl=10
*|S (B:9 0.3360 0.0150) // $llx=0.3300 $lly=0.0150 $urx=0.3420 $ury=0.0150 $lvl=10
*|S (B:10 0.3360 0.0450) // $llx=0.3300 $lly=0.0450 $urx=0.3420 $ury=0.0450 $lvl=11
*|S (B:11 0.3360 0.0750) // $llx=0.3300 $lly=0.0750 $urx=0.3420 $ury=0.0750 $lvl=10
*|S (B:12 0.3360 0.1050) // $llx=0.3300 $lly=0.1050 $urx=0.3420 $ury=0.1050 $lvl=12
*|S (B:13 0.3360 0.1100) // $llx=0.3300 $lly=0.1100 $urx=0.3420 $ury=0.1100 $lvl=10
*|S (B:14 0.3360 0.0600) // $llx=0.3300 $lly=0.0540 $urx=0.3420 $ury=0.0660 $lvl=10
*|S (B:15 0.1680 0.0480) // $llx=0.1620 $lly=0.0420 $urx=0.1740 $ury=0.0540 $lvl=9
*|S (B:16 0.1680 0.0480) // $llx=0.1620 $lly=0.0420 $urx=0.1740 $ury=0.0540 $lvl=10
*|S (B:17 0.2520 0.0720) // $llx=0.2460 $lly=0.0660 $urx=0.2580 $ury=0.0780 $lvl=9
*|S (B:18 0.2520 0.0720) // $llx=0.2460 $lly=0.0660 $urx=0.2580 $ury=0.0780 $lvl=10
*|S (B:19 0.3570 0.0600) // $llx=0.3510 $lly=0.0540 $urx=0.3630 $ury=0.0660 $lvl=14
*|S (B:20 0.2310 0.0600) // $llx=0.2250 $lly=0.0420 $urx=0.2370 $ury=0.0780 $lvl=9
*|S (B:21 0.3570 0.0180) // $llx=0.3510 $lly=0.0180 $urx=0.3630 $ury=0.0180 $lvl=9
*|S (B:22 0.3570 0.1020) // $llx=0.3510 $lly=0.1020 $urx=0.3630 $ury=0.1020 $lvl=9
*|S (B:23 0.1680 0.0100) // $llx=0.1620 $lly=0.0100 $urx=0.1740 $ury=0.0100 $lvl=10
*|S (B:24 0.3360 0.0100) // $llx=0.3300 $lly=0.0100 $urx=0.3420 $ury=0.0100 $lvl=10
*|S (B:25 0.3630 0.0600) // $llx=0.3630 $lly=0.0540 $urx=0.3630 $ury=0.0660 $lvl=14
*|S (B:26 0.1620 0.0480) // $llx=0.1620 $lly=0.0420 $urx=0.1620 $ury=0.0540 $lvl=9
Cg2_1 B 0 1.98402e-18
Cg2_2 B:6 0 6.9987e-20
Cg2_3 B:7 0 3.68393e-19
Cg2_4 B:8 0 1.74064e-19
Cg2_5 B:9 0 3.63205e-19
Cg2_6 B:10 0 3.06394e-19
Cg2_7 B:11 0 1.86084e-18
Cg2_8 B:12 0 2.85632e-19
Cg2_9 B:13 0 4.96236e-19
Cg2_10 B:14 0 4.81049e-19
Cg2_11 B:16 0 5.90325e-19
Cg2_12 B:18 0 2.23065e-19
Cg2_13 B:20 0 2.46097e-18
Cg2_14 B:21 0 1.8062e-18
Cg2_15 B:22 0 9.36258e-19
R2_1 B B:17 36.4583 $l=0.1050 $w=0.0120 $lvl=9
R2_2 B B:19 63.5281 $a=0.00014400 $lvl=30
R2_3 B B:21 16.3194 $l=0.0420 $w=0.0120 $lvl=9
R2_4 B B:22 10.4167 $l=0.0420 $w=0.0120 $lvl=9
R2_5 MM11:GATE B:10 6.57895 $l=0.0150 $w=0.0120 $lvl=11
R2_6 MM11:GATE B:9 6.57895 $l=0.0150 $w=0.0120 $lvl=11
R2_7 MM1:GATE B:16 6.57895 $l=0.0180 $w=0.0120 $lvl=11
R2_8 MM1:GATE B:6 6.57895 $l=0.0150 $w=0.0120 $lvl=11
R2_9 MM8:GATE B:12 6.57895 $l=0.0150 $w=0.0120 $lvl=12
R2_10 MM8:GATE B:11 6.57895 $l=0.0150 $w=0.0120 $lvl=12
R2_11 MM7:GATE B:7 6.57895 $l=0.0150 $w=0.0120 $lvl=12
R2_12 MM7:GATE B:18 7.89474 $l=0.0180 $w=0.0120 $lvl=12
R2_13 B:6 B:23 2.19298 $l=0.0050 $w=0.0120 $lvl=10
R2_14 B:7 B:8 2.19298 $l=0.0050 $w=0.0120 $lvl=10
R2_15 B:9 B:24 2.19298 $l=0.0050 $w=0.0120 $lvl=10
R2_16 B:10 B:14 6.57895 $l=0.0150 $w=0.0120 $lvl=10
R2_17 B:11 B:14 6.57895 $l=0.0150 $w=0.0120 $lvl=10
R2_18 B:12 B:13 2.19298 $l=0.0050 $w=0.0120 $lvl=10
R2_19 B:14 B:19 27.7339 $l=0.0210 $w=0.0120 $lvl=14
R2_20 B:15 B:16 63.5281 $a=0.00014400 $lvl=30
R2_21 B:15 B:26 2.08333 $l=0.0060 $w=0.0120 $lvl=9
R2_22 B:15 B:20 21.875 $l=0.0630 $w=0.0120 $lvl=9
R2_23 B:17 B:18 63.5281 $a=0.00014400 $lvl=30
R2_24 B:17 B:20 7.29167 $l=0.0210 $w=0.0120 $lvl=9
R2_25 B:19 B:25 7.92396 $l=0.0060 $w=0.0120 $lvl=14

*|NET VSS 8.87719e-05PF
*|P (VSS B 0 0.1890 0.0000) // $llx=0.1830 $lly=-0.0060 $urx=0.1950 $ury=0.0060 $lvl=33
*|I (MM11:BULK MM11 BULK B 0 0.3360 0.0300) // $llx=0.3360 $lly=0.0300 $urx=0.3360 $ury=0.0300 $lvl=20
*|I (MM11:SRC MM11 SRC B 0 0.3420 0.0300) // $llx=0.3420 $lly=0.0300 $urx=0.3420 $ury=0.0300 $lvl=16
*|I (MM2:SRC MM2 SRC B 0 0.2580 0.0300) // $llx=0.2580 $lly=0.0300 $urx=0.2580 $ury=0.0300 $lvl=16
*|I (MM0:SRC MM0 SRC B 0 0.1200 0.0300) // $llx=0.1200 $lly=0.0300 $urx=0.1200 $ury=0.0300 $lvl=16
*|I (MM10:SRC MM10 SRC B 0 0.0360 0.0300) // $llx=0.0360 $lly=0.0300 $urx=0.0360 $ury=0.0300 $lvl=16
*|I (MM11:BULK MM2 BULK B 0 0.2520 0.0300) // $llx=0.2520 $lly=0.0300 $urx=0.2520 $ury=0.0300 $lvl=20
*|I (MM11:BULK MM3 BULK B 0 0.2100 0.0300) // $llx=0.2100 $lly=0.0300 $urx=0.2100 $ury=0.0300 $lvl=20
*|I (MM11:BULK MM1 BULK B 0 0.1680 0.0300) // $llx=0.1680 $lly=0.0300 $urx=0.1680 $ury=0.0300 $lvl=20
*|I (MM11:BULK MM0 BULK B 0 0.1260 0.0300) // $llx=0.1260 $lly=0.0300 $urx=0.1260 $ury=0.0300 $lvl=20
*|I (MM11:BULK MM10 BULK B 0 0.0420 0.0300) // $llx=0.0420 $lly=0.0300 $urx=0.0420 $ury=0.0300 $lvl=20
*|S (VSS:7 0.0210 0.0150) // $llx=0.0110 $lly=0.0150 $urx=0.0310 $ury=0.0150 $lvl=15
*|S (VSS:8 0.1050 0.0150) // $llx=0.0950 $lly=0.0150 $urx=0.1150 $ury=0.0150 $lvl=15
*|S (VSS:9 0.2730 0.0150) // $llx=0.2630 $lly=0.0150 $urx=0.2830 $ury=0.0150 $lvl=15
*|S (VSS:10 0.3570 0.0150) // $llx=0.3470 $lly=0.0150 $urx=0.3670 $ury=0.0150 $lvl=15
*|S (VSS:11 0.0210 0.0000) // $llx=0.0150 $lly=-0.0060 $urx=0.0270 $ury=0.0060 $lvl=9
*|S (VSS:12 0.0630 0.0000) // $llx=0.0570 $lly=-0.0060 $urx=0.0690 $ury=0.0060 $lvl=9
*|S (VSS:13 0.0630 0.0000) // $llx=0.0570 $lly=-0.0060 $urx=0.0690 $ury=0.0060 $lvl=14
*|S (VSS:14 0.1050 0.0000) // $llx=0.0990 $lly=-0.0060 $urx=0.1110 $ury=0.0060 $lvl=9
*|S (VSS:15 0.1470 0.0000) // $llx=0.1410 $lly=-0.0060 $urx=0.1530 $ury=0.0060 $lvl=9
*|S (VSS:16 0.1470 0.0000) // $llx=0.1410 $lly=-0.0060 $urx=0.1530 $ury=0.0060 $lvl=14
*|S (VSS:17 0.1890 0.0000) // $llx=0.1830 $lly=-0.0060 $urx=0.1950 $ury=0.0060 $lvl=14
*|S (VSS:18 0.2310 0.0000) // $llx=0.2250 $lly=-0.0060 $urx=0.2370 $ury=0.0060 $lvl=9
*|S (VSS:19 0.2310 0.0000) // $llx=0.2250 $lly=-0.0060 $urx=0.2370 $ury=0.0060 $lvl=14
*|S (VSS:20 0.2730 0.0000) // $llx=0.2670 $lly=-0.0060 $urx=0.2790 $ury=0.0060 $lvl=9
*|S (VSS:21 0.3150 0.0000) // $llx=0.3090 $lly=-0.0060 $urx=0.3210 $ury=0.0060 $lvl=9
*|S (VSS:22 0.3150 0.0000) // $llx=0.3090 $lly=-0.0060 $urx=0.3210 $ury=0.0060 $lvl=14
*|S (VSS:23 0.3570 0.0000) // $llx=0.3510 $lly=-0.0060 $urx=0.3630 $ury=0.0060 $lvl=9
*|S (VSS:24 0.3570 0.0000) // $llx=0.3470 $lly=-0.0060 $urx=0.3670 $ury=0.0060 $lvl=13
*|S (VSS:25 0.0210 0.0450) // $llx=0.0110 $lly=0.0450 $urx=0.0310 $ury=0.0450 $lvl=15
*|S (VSS:26 0.1050 0.0450) // $llx=0.0950 $lly=0.0450 $urx=0.1150 $ury=0.0450 $lvl=15
*|S (VSS:27 0.2730 0.0450) // $llx=0.2630 $lly=0.0450 $urx=0.2830 $ury=0.0450 $lvl=15
*|S (VSS:28 0.3670 0.0600) // $llx=0.3670 $lly=-0.0100 $urx=0.3780 $ury=0.1300 $lvl=20
*|S (VSS:29 0.3570 0.0450) // $llx=0.3470 $lly=0.0450 $urx=0.3670 $ury=0.0450 $lvl=15
*|S (VSS:30 0.4120 0.0600) // $llx=0.4120 $lly=-0.0100 $urx=0.4120 $ury=0.1300 $lvl=20
*|S (VSS:31 -0.0090 0.0000) // $llx=-0.0090 $lly=-0.0060 $urx=-0.0090 $ury=0.0060 $lvl=9
*|S (VSS:32 0.2730 0.0000) // $llx=0.2630 $lly=-0.0060 $urx=0.2830 $ury=0.0060 $lvl=14
*|S (VSS:33 0.1050 0.0000) // $llx=0.0950 $lly=-0.0060 $urx=0.1150 $ury=0.0060 $lvl=14
*|S (VSS:34 0.0210 0.0000) // $llx=0.0110 $lly=-0.0060 $urx=0.0310 $ury=0.0060 $lvl=14
*|S (VSS:35 -0.0090 0.0000) // $llx=-0.0090 $lly=-0.0060 $urx=-0.0090 $ury=0.0060 $lvl=14
*|S (VSS:36 0.3870 0.0000) // $llx=0.3870 $lly=-0.0060 $urx=0.3870 $ury=0.0060 $lvl=14
*|S (VSS:37 0.0210 0.0300) // $llx=0.0110 $lly=0.0300 $urx=0.0310 $ury=0.0300 $lvl=15
*|S (VSS:38 0.1050 0.0300) // $llx=0.0950 $lly=0.0300 $urx=0.1150 $ury=0.0300 $lvl=15
*|S (VSS:39 0.2730 0.0300) // $llx=0.2630 $lly=0.0300 $urx=0.2830 $ury=0.0300 $lvl=15
*|S (VSS:40 0.3570 0.0300) // $llx=0.3470 $lly=0.0300 $urx=0.3670 $ury=0.0300 $lvl=15
*|S (VSS:41 0.3870 0.0000) // $llx=0.3870 $lly=-0.0060 $urx=0.3870 $ury=0.0060 $lvl=9
C3_1 MM11:BULK A 2.7248e-19
C3_2 VSS:7 A 2.08319e-19
C3_3 VSS:24 A 9.88498e-20
C3_4 VSS:25 A 3.93192e-20
C3_5 VSS:31 A 1.94906e-18
C3_6 VSS:34 A 3.18938e-19
C3_7 VSS:24 A:8 4.36284e-20
C3_8 VSS:24 A:12 4.33548e-20
C3_9 VSS:24 A:15 3.78951e-21
C3_10 MM11:BULK A:19 6.59627e-19
C3_11 VSS:7 A:19 2.20794e-20
C3_12 VSS:8 A:19 3.78079e-20
C3_13 VSS:24 A:19 3.06553e-20
C3_14 VSS:25 A:19 9.4702e-21
C3_15 VSS:26 A:19 8.76634e-21
C3_16 VSS:31 A:19 1.19595e-18
C3_17 VSS:33 A:19 3.41823e-19
C3_18 VSS:34 A:19 1.31382e-19
C3_19 MM11:BULK A:20 4.83891e-19
C3_20 MM11:BULK B 4.96403e-19
C3_21 VSS:24 B 1.89649e-20
C3_22 VSS:31 B 8.36346e-19
C3_23 VSS:24 B:9 5.38371e-19
C3_24 VSS:31 B:9 1.05239e-20
C3_25 VSS:24 B:10 9.37832e-21
C3_26 VSS:24 B:18 2.43055e-21
C3_27 MM11:BULK B:20 4.22688e-19
C3_28 VSS:24 B:20 2.59607e-20
C3_29 VSS:31 B:20 1.10201e-18
C3_30 MM11:BULK B:21 1.8477e-19
C3_31 VSS:10 B:21 1.1096e-19
C3_32 VSS:24 B:21 7.88569e-19
C3_33 VSS:28 B:21 1.62778e-19
C3_34 VSS:29 B:21 3.78706e-20
C3_35 VSS:30 B:21 1.58408e-36
C3_36 VSS:31 B:21 2.03391e-18
C3_37 MM11:BULK B:22 3.16816e-36
Cg3_38 MM11:BULK 0 1.33068e-17
Cg3_39 VSS:7 0 2.61482e-19
Cg3_40 VSS:8 0 2.55569e-19
Cg3_41 VSS:9 0 1.78742e-19
Cg3_42 VSS:10 0 1.78742e-19
Cg3_43 VSS:24 0 4.44292e-18
Cg3_44 VSS:25 0 5.17687e-19
Cg3_45 VSS:26 0 5.17687e-19
Cg3_46 VSS:27 0 5.17687e-19
Cg3_47 VSS:28 0 1.05618e-18
Cg3_48 VSS:29 0 5.17687e-19
Cg3_49 VSS:31 0 1.03943e-17
Cg3_50 VSS:32 0 2.03912e-19
Cg3_51 VSS:33 0 5.89284e-19
Cg3_52 VSS:34 0 5.89656e-19
R3_1 VSS VSS:15 14.5833 $l=0.0420 $w=0.0120 $lvl=9
R3_2 VSS VSS:18 14.5833 $l=0.0420 $w=0.0120 $lvl=9
R3_3 VSS VSS:17 63.5281 $a=0.00014400 $lvl=30
R3_4 MM11:BULK VSS:28 0.356491 $l=0.0310 $w=0.1400 $lvl=20
R3_5 MM11:SRC VSS:29 2.0 $l=0.0150 $w=0.0075 $lvl=16
R3_6 MM11:SRC VSS:10 2.0 $l=0.0150 $w=0.0075 $lvl=16
R3_7 MM11:SRC VSS:40 1.0 $l=0.0150 $w=0.0150 $lvl=16
R3_8 MM2:SRC VSS:27 2.0 $l=0.0150 $w=0.0075 $lvl=16
R3_9 MM2:SRC VSS:9 2.0 $l=0.0150 $w=0.0075 $lvl=16
R3_10 MM2:SRC VSS:39 1.0 $l=0.0150 $w=0.0150 $lvl=16
R3_11 MM0:SRC VSS:26 2.0 $l=0.0150 $w=0.0075 $lvl=16
R3_12 MM0:SRC VSS:8 2.0 $l=0.0150 $w=0.0075 $lvl=16
R3_13 MM0:SRC VSS:38 1.0 $l=0.0150 $w=0.0150 $lvl=16
R3_14 MM10:SRC VSS:25 2.0 $l=0.0150 $w=0.0075 $lvl=16
R3_15 MM10:SRC VSS:7 2.0 $l=0.0150 $w=0.0075 $lvl=16
R3_16 MM10:SRC VSS:37 1.0 $l=0.0150 $w=0.0150 $lvl=16
R3_17 VSS:7 VSS:37 2.73284 $l=0.0150 $w=0.0225 $lvl=16
R3_18 VSS:7 VSS:34 8.89907 $l=0.0150 $w=0.0200 $lvl=13
R3_19 VSS:8 VSS:38 2.73284 $l=0.0150 $w=0.0225 $lvl=16
R3_20 VSS:8 VSS:33 8.89907 $l=0.0150 $w=0.0200 $lvl=13
R3_21 VSS:9 VSS:39 2.73284 $l=0.0150 $w=0.0225 $lvl=16
R3_22 VSS:9 VSS:32 8.89907 $l=0.0150 $w=0.0200 $lvl=13
R3_23 VSS:10 VSS:40 2.73284 $l=0.0150 $w=0.0225 $lvl=16
R3_24 VSS:10 VSS:24 8.89907 $l=0.0150 $w=0.0200 $lvl=13
R3_25 VSS:11 VSS:31 10.4167 $l=0.0300 $w=0.0120 $lvl=9
R3_26 VSS:11 VSS:12 14.5833 $l=0.0420 $w=0.0120 $lvl=9
R3_27 VSS:11 VSS:34 31.764 $a=0.00028800 $lvl=31
R3_28 VSS:12 VSS:13 63.5281 $a=0.00014400 $lvl=30
R3_29 VSS:12 VSS:14 14.5833 $l=0.0420 $w=0.0120 $lvl=9
R3_30 VSS:13 VSS:34 50.1851 $l=0.0420 $w=0.0120 $lvl=14
R3_31 VSS:13 VSS:33 50.1851 $l=0.0420 $w=0.0120 $lvl=14
R3_32 VSS:14 VSS:15 14.5833 $l=0.0420 $w=0.0120 $lvl=9
R3_33 VSS:14 VSS:33 31.764 $a=0.00028800 $lvl=31
R3_34 VSS:15 VSS:16 63.5281 $a=0.00014400 $lvl=30
R3_35 VSS:16 VSS:33 50.1851 $l=0.0420 $w=0.0120 $lvl=14
R3_36 VSS:16 VSS:17 55.4677 $l=0.0420 $w=0.0120 $lvl=14
R3_37 VSS:17 VSS:19 55.4677 $l=0.0420 $w=0.0120 $lvl=14
R3_38 VSS:18 VSS:19 63.5281 $a=0.00014400 $lvl=30
R3_39 VSS:18 VSS:20 14.5833 $l=0.0420 $w=0.0120 $lvl=9
R3_40 VSS:19 VSS:32 50.1851 $l=0.0420 $w=0.0120 $lvl=14
R3_41 VSS:20 VSS:21 14.5833 $l=0.0420 $w=0.0120 $lvl=9
R3_42 VSS:20 VSS:32 31.764 $a=0.00028800 $lvl=31
R3_43 VSS:21 VSS:22 63.5281 $a=0.00014400 $lvl=30
R3_44 VSS:21 VSS:23 14.5833 $l=0.0420 $w=0.0120 $lvl=9
R3_45 VSS:22 VSS:32 50.1851 $l=0.0420 $w=0.0120 $lvl=14
R3_46 VSS:22 VSS:24 50.1851 $l=0.0420 $w=0.0120 $lvl=14
R3_47 VSS:23 VSS:24 31.764 $a=0.00028800 $lvl=31
R3_48 VSS:23 VSS:41 10.4167 $l=0.0300 $w=0.0120 $lvl=9
R3_49 VSS:24 VSS:36 34.3372 $l=0.0300 $w=0.0120 $lvl=14
R3_50 VSS:25 VSS:37 2.73284 $l=0.0150 $w=0.0225 $lvl=16
R3_51 VSS:26 VSS:38 2.73284 $l=0.0150 $w=0.0225 $lvl=16
R3_52 VSS:27 VSS:39 2.73284 $l=0.0150 $w=0.0225 $lvl=16
R3_53 VSS:28 VSS:30 0.282143 $l=0.0450 $w=0.1400 $lvl=20
R3_54 VSS:29 VSS:40 2.73284 $l=0.0150 $w=0.0225 $lvl=16
R3_55 VSS:34 VSS:35 34.3372 $l=0.0300 $w=0.0120 $lvl=14
R3_56 MM11:SRC MM11:BULK 0.01 $l=0.0060 $w=100.0000 $lvl=0

*|NET VDD 0.00010557PF
*|P (VDD B 0 0.3690 0.0720) // $llx=0.3680 $lly=0.0710 $urx=0.3700 $ury=0.0710 $lvl=19
*|P (VDD_1 B 0 0.1890 0.1200) // $llx=0.1830 $lly=0.1140 $urx=0.1950 $ury=0.1260 $lvl=33
*|I (MM4:BULK MM4 BULK B 0 0.1680 0.0900) // $llx=0.1680 $lly=0.0900 $urx=0.1680 $ury=0.0900 $lvl=19
*|I (MM5:BULK MM5 BULK B 0 0.1260 0.0900) // $llx=0.1260 $lly=0.0900 $urx=0.1260 $ury=0.0900 $lvl=19
*|I (MM5:SRC MM5 SRC B 0 0.1200 0.0900) // $llx=0.1200 $lly=0.0900 $urx=0.1200 $ury=0.0900 $lvl=17
*|I (MM9:BULK MM9 BULK B 0 0.0420 0.0900) // $llx=0.0420 $lly=0.0900 $urx=0.0420 $ury=0.0900 $lvl=19
*|I (MM9:SRC MM9 SRC B 0 0.0360 0.0900) // $llx=0.0360 $lly=0.0900 $urx=0.0360 $ury=0.0900 $lvl=17
*|I (MM8:BULK MM8 BULK B 0 0.3360 0.0900) // $llx=0.3360 $lly=0.0900 $urx=0.3360 $ury=0.0900 $lvl=19
*|I (MM8:SRC MM8 SRC B 0 0.3420 0.0900) // $llx=0.3420 $lly=0.0900 $urx=0.3420 $ury=0.0900 $lvl=17
*|I (MM7:BULK MM7 BULK B 0 0.2520 0.0900) // $llx=0.2520 $lly=0.0900 $urx=0.2520 $ury=0.0900 $lvl=19
*|I (MM7:SRC MM7 SRC B 0 0.2580 0.0900) // $llx=0.2580 $lly=0.0900 $urx=0.2580 $ury=0.0900 $lvl=17
*|I (MM6:BULK MM6 BULK B 0 0.2100 0.0900) // $llx=0.2100 $lly=0.0900 $urx=0.2100 $ury=0.0900 $lvl=19
*|S (VDD:12 0.0210 0.0750) // $llx=0.0110 $lly=0.0750 $urx=0.0310 $ury=0.0750 $lvl=15
*|S (VDD:13 0.1050 0.0750) // $llx=0.0950 $lly=0.0750 $urx=0.1150 $ury=0.0750 $lvl=15
*|S (VDD:14 0.2730 0.0750) // $llx=0.2630 $lly=0.0750 $urx=0.2830 $ury=0.0750 $lvl=15
*|S (VDD:15 0.3570 0.0750) // $llx=0.3470 $lly=0.0750 $urx=0.3670 $ury=0.0750 $lvl=15
*|S (VDD:16 0.0210 0.1200) // $llx=0.0150 $lly=0.1140 $urx=0.0270 $ury=0.1260 $lvl=9
*|S (VDD:17 0.0630 0.1200) // $llx=0.0570 $lly=0.1140 $urx=0.0690 $ury=0.1260 $lvl=9
*|S (VDD:18 0.0630 0.1200) // $llx=0.0570 $lly=0.1140 $urx=0.0690 $ury=0.1260 $lvl=14
*|S (VDD:19 0.1050 0.1200) // $llx=0.0990 $lly=0.1140 $urx=0.1110 $ury=0.1260 $lvl=9
*|S (VDD:20 0.1470 0.1200) // $llx=0.1410 $lly=0.1140 $urx=0.1530 $ury=0.1260 $lvl=9
*|S (VDD:21 0.1470 0.1200) // $llx=0.1410 $lly=0.1140 $urx=0.1530 $ury=0.1260 $lvl=14
*|S (VDD:22 0.1890 0.1200) // $llx=0.1830 $lly=0.1140 $urx=0.1950 $ury=0.1260 $lvl=14
*|S (VDD:23 0.2310 0.1200) // $llx=0.2250 $lly=0.1140 $urx=0.2370 $ury=0.1260 $lvl=9
*|S (VDD:24 0.2310 0.1200) // $llx=0.2250 $lly=0.1140 $urx=0.2370 $ury=0.1260 $lvl=14
*|S (VDD:25 0.2730 0.1200) // $llx=0.2670 $lly=0.1140 $urx=0.2790 $ury=0.1260 $lvl=9
*|S (VDD:26 0.3150 0.1200) // $llx=0.3090 $lly=0.1140 $urx=0.3210 $ury=0.1260 $lvl=9
*|S (VDD:27 0.3150 0.1200) // $llx=0.3090 $lly=0.1140 $urx=0.3210 $ury=0.1260 $lvl=14
*|S (VDD:28 0.3570 0.1200) // $llx=0.3510 $lly=0.1140 $urx=0.3630 $ury=0.1260 $lvl=9
*|S (VDD:29 0.3570 0.1200) // $llx=0.3470 $lly=0.1140 $urx=0.3670 $ury=0.1260 $lvl=13
*|S (VDD:30 0.0360 0.0900) // $llx=0.0360 $lly=0.0600 $urx=0.0360 $ury=0.1200 $lvl=18
*|S (VDD:31 0.0210 0.1050) // $llx=0.0110 $lly=0.1050 $urx=0.0310 $ury=0.1050 $lvl=15
*|S (VDD:32 0.0055 0.0900) // $llx=0.0000 $lly=0.0600 $urx=0.0110 $ury=0.1200 $lvl=18
*|S (VDD:33 0.0730 0.0900) // $llx=0.0730 $lly=0.0600 $urx=0.0730 $ury=0.1200 $lvl=18
*|S (VDD:34 0.0480 0.0600) // $llx=0.0480 $lly=0.0600 $urx=0.0480 $ury=0.1200 $lvl=19
*|S (VDD:35 0.1200 0.0900) // $llx=0.1200 $lly=0.0600 $urx=0.1200 $ury=0.1200 $lvl=18
*|S (VDD:36 0.0950 0.0600) // $llx=0.0950 $lly=0.0600 $urx=0.0950 $ury=0.1200 $lvl=19
*|S (VDD:37 0.1050 0.1050) // $llx=0.0950 $lly=0.1050 $urx=0.1150 $ury=0.1050 $lvl=15
*|S (VDD:38 0.1620 0.0900) // $llx=0.1620 $lly=0.0600 $urx=0.1620 $ury=0.1200 $lvl=18
*|S (VDD:39 0.1320 0.0600) // $llx=0.1320 $lly=0.0600 $urx=0.1320 $ury=0.1200 $lvl=19
*|S (VDD:40 0.2040 0.0900) // $llx=0.2040 $lly=0.0600 $urx=0.2040 $ury=0.1200 $lvl=18
*|S (VDD:41 0.1740 0.0600) // $llx=0.1740 $lly=0.0600 $urx=0.1740 $ury=0.1200 $lvl=19
*|S (VDD:42 0.2460 0.0900) // $llx=0.2460 $lly=0.0600 $urx=0.2460 $ury=0.1200 $lvl=18
*|S (VDD:43 0.2160 0.0600) // $llx=0.2160 $lly=0.0600 $urx=0.2160 $ury=0.1200 $lvl=19
*|S (VDD:44 0.2830 0.0900) // $llx=0.2830 $lly=0.0600 $urx=0.2830 $ury=0.1200 $lvl=18
*|S (VDD:45 0.2580 0.0600) // $llx=0.2580 $lly=0.0600 $urx=0.2580 $ury=0.1200 $lvl=19
*|S (VDD:46 0.2730 0.1050) // $llx=0.2630 $lly=0.1050 $urx=0.2830 $ury=0.1050 $lvl=15
*|S (VDD:47 0.3050 0.0600) // $llx=0.3050 $lly=0.0600 $urx=0.3050 $ury=0.1200 $lvl=19
*|S (VDD:48 0.3570 0.1050) // $llx=0.3470 $lly=0.1050 $urx=0.3670 $ury=0.1050 $lvl=15
*|S (VDD:49 -0.0090 0.1200) // $llx=-0.0090 $lly=0.1140 $urx=-0.0090 $ury=0.1260 $lvl=9
*|S (VDD:50 0.2730 0.1200) // $llx=0.2630 $lly=0.1140 $urx=0.2830 $ury=0.1260 $lvl=14
*|S (VDD:51 0.1050 0.1200) // $llx=0.0950 $lly=0.1140 $urx=0.1150 $ury=0.1260 $lvl=14
*|S (VDD:52 0.0210 0.1200) // $llx=0.0110 $lly=0.1140 $urx=0.0310 $ury=0.1260 $lvl=14
*|S (VDD:53 -0.0090 0.1200) // $llx=-0.0090 $lly=0.1140 $urx=-0.0090 $ury=0.1260 $lvl=14
*|S (VDD:54 0.3870 0.1200) // $llx=0.3870 $lly=0.1140 $urx=0.3870 $ury=0.1260 $lvl=14
*|S (VDD:55 0.0210 0.0900) // $llx=0.0110 $lly=0.0900 $urx=0.0310 $ury=0.0900 $lvl=15
*|S (VDD:56 0.1050 0.0900) // $llx=0.0950 $lly=0.0900 $urx=0.1150 $ury=0.0900 $lvl=15
*|S (VDD:57 0.2730 0.0900) // $llx=0.2630 $lly=0.0900 $urx=0.2830 $ury=0.0900 $lvl=15
*|S (VDD:58 0.3570 0.0900) // $llx=0.3470 $lly=0.0900 $urx=0.3670 $ury=0.0900 $lvl=15
*|S (VDD:59 0.3870 0.1200) // $llx=0.3870 $lly=0.1140 $urx=0.3870 $ury=0.1260 $lvl=9
C4_1 VDD:29 A:8 5.92522e-20
C4_2 VDD:49 A:8 7.03744e-21
C4_3 VDD:29 A:9 2.30044e-19
C4_4 VDD:49 A:9 4.12974e-20
C4_5 VDD:29 A:10 1.49529e-19
C4_6 VDD:49 A:10 3.67504e-20
C4_7 VDD:39 A:11 1.70135e-21
C4_8 VDD:29 A:12 5.99896e-20
C4_9 VDD:29 A:13 2.22333e-19
C4_10 VDD:49 A:13 3.83923e-20
C4_11 VDD:29 A:14 1.49656e-19
C4_12 VDD:49 A:14 4.29081e-20
C4_13 VDD:29 A:15 2.83478e-19
C4_14 VDD:31 A:15 2.08429e-19
C4_15 VDD:32 A:15 9.89195e-21
C4_16 VDD:49 A:15 3.24079e-20
C4_17 VDD:52 A:15 2.21537e-18
C4_18 VDD:39 A:18 4.00417e-19
C4_19 VDD:36 A:19 8.2399e-20
C4_20 VDD:49 A:19 1.73342e-18
C4_21 VDD:12 A:20 1.0966e-19
C4_22 VDD:30 A:20 3.71185e-20
C4_23 VDD:31 A:20 1.30442e-19
C4_24 VDD:32 A:20 3.97424e-20
C4_25 VDD:49 A:20 2.00767e-18
C4_26 VDD:52 A:20 3.44814e-19
C4_27 VDD B 3.47147e-20
C4_28 MM8:BULK B 4.158e-20
C4_29 VDD:14 B 2.03075e-20
C4_30 VDD:15 B 1.6246e-20
C4_31 VDD:29 B 3.45019e-20
C4_32 VDD:42 B 2.20912e-20
C4_33 VDD:44 B 2.6299e-20
C4_34 VDD:45 B 1.96162e-20
C4_35 VDD:46 B 3.29282e-20
C4_36 VDD:47 B 6.92115e-20
C4_37 VDD:48 B 2.15401e-20
C4_38 VDD:49 B 1.41715e-18
C4_39 VDD:50 B 4.31274e-20
C4_40 VDD:41 B:6 4.2855e-20
C4_41 VDD:29 B:7 2.25945e-19
C4_42 VDD:49 B:7 3.83923e-20
C4_43 VDD:29 B:8 1.49656e-19
C4_44 VDD:49 B:8 4.29081e-20
C4_45 VDD:29 B:13 1.51088e-19
C4_46 VDD:49 B:13 9.39374e-20
C4_47 MM8:BULK B:14 9.89195e-21
C4_48 VDD:48 B:14 4.98246e-19
C4_49 VDD:41 B:16 1.06823e-18
C4_50 VDD:29 B:18 4.07702e-19
C4_51 VDD:42 B:20 1.68314e-20
C4_52 VDD:49 B:20 1.05251e-19
C4_53 VDD B:21 4.7506e-20
C4_54 MM8:BULK B:22 1.50474e-19
C4_55 VDD:15 B:22 9.74758e-20
C4_56 VDD:29 B:22 6.59635e-19
C4_57 VDD:48 B:22 3.36627e-20
C4_58 VDD:49 B:22 1.97084e-18
C4_59 MM8:BULK MM11:BULK 1.50132e-20
C4_60 VDD:12 MM11:BULK 8.03898e-19
C4_61 VDD:13 MM11:BULK 8.06114e-19
C4_62 VDD:47 MM11:BULK 5.85785e-20
C4_63 VDD:49 MM11:BULK 2.04153e-18
C4_64 VDD:51 MM11:BULK 1.32248e-18
C4_65 VDD:52 MM11:BULK 1.32084e-18
C4_66 VDD:29 VSS:24 3.31165e-20
C4_67 VDD:32 VSS:24 1.12085e-19
C4_68 VDD:36 VSS:24 1.18981e-19
C4_69 VDD:39 VSS:24 1.33485e-21
C4_70 VDD:41 VSS:24 2.26301e-20
C4_71 VDD:43 VSS:24 1.33485e-21
C4_72 VDD:45 VSS:24 2.26301e-20
C4_73 VDD:49 VSS:24 7.10305e-20
C4_74 VDD:51 VSS:24 6.86626e-21
C4_75 VDD:52 VSS:24 6.86583e-21
C4_76 VDD:29 VSS:31 3.37305e-20
C4_77 VDD:49 VSS:31 7.23104e-19
Cg4_78 VDD 0 1.04478e-18
Cg4_79 MM8:BULK 0 3.53039e-18
Cg4_80 VDD:12 0 9.78606e-19
Cg4_81 VDD:13 0 8.03764e-19
Cg4_82 VDD:14 0 1.78742e-19
Cg4_83 VDD:15 0 1.78742e-19
Cg4_84 VDD:29 0 1.99536e-17
Cg4_85 VDD:30 0 2.58844e-19
Cg4_86 VDD:31 0 5.17687e-19
Cg4_87 VDD:32 0 1.72222e-18
Cg4_88 VDD:33 0 2.58844e-19
Cg4_89 VDD:34 0 1.74618e-18
Cg4_90 VDD:35 0 2.58844e-19
Cg4_91 VDD:36 0 2.69239e-18
Cg4_92 VDD:37 0 4.9409e-19
Cg4_93 VDD:38 0 3.10612e-19
Cg4_94 VDD:39 0 1.90771e-18
Cg4_95 VDD:40 0 3.10612e-19
Cg4_96 VDD:41 0 1.90166e-18
Cg4_97 VDD:42 0 3.10612e-19
Cg4_98 VDD:43 0 1.89929e-18
Cg4_99 VDD:44 0 2.58844e-19
Cg4_100 VDD:45 0 1.70383e-18
Cg4_101 VDD:46 0 5.12983e-19
Cg4_102 VDD:47 0 2.75579e-18
Cg4_103 VDD:48 0 5.16365e-19
Cg4_104 VDD:49 0 1.10932e-17
Cg4_105 VDD:50 0 5.74224e-19
Cg4_106 VDD:51 0 6.27798e-19
Cg4_107 VDD:52 0 8.34768e-19
R4_1 VDD MM8:BULK 0.438805 $l=0.0330 $w=0.0600 $lvl=19
R4_2 MM4:BULK VDD:41 0.1 $l=0.0060 $w=0.0600 $lvl=18
R4_3 MM4:BULK VDD:38 0.1 $l=0.0060 $w=0.0600 $lvl=18
R4_4 MM5:BULK VDD:39 0.1 $l=0.0060 $w=0.0600 $lvl=18
R4_5 MM5:BULK VDD:35 0.1 $l=0.0060 $w=0.0600 $lvl=18
R4_6 MM5:SRC VDD:37 2.0 $l=0.0150 $w=0.0075 $lvl=17
R4_7 MM5:SRC VDD:13 2.0 $l=0.0150 $w=0.0075 $lvl=17
R4_8 MM5:SRC VDD:56 1.0 $l=0.0150 $w=0.0150 $lvl=17
R4_9 MM9:BULK VDD:34 0.1 $l=0.0060 $w=0.0600 $lvl=18
R4_10 MM9:BULK VDD:30 0.1 $l=0.0060 $w=0.0600 $lvl=18
R4_11 MM9:SRC VDD:31 2.0 $l=0.0150 $w=0.0075 $lvl=17
R4_12 MM9:SRC VDD:12 2.0 $l=0.0150 $w=0.0075 $lvl=17
R4_13 MM9:SRC VDD:55 1.0 $l=0.0150 $w=0.0150 $lvl=17
R4_14 MM8:BULK VDD:47 0.516667 $l=0.0310 $w=0.0600 $lvl=18
R4_15 MM8:SRC VDD:48 2.0 $l=0.0150 $w=0.0075 $lvl=17
R4_16 MM8:SRC VDD:15 2.0 $l=0.0150 $w=0.0075 $lvl=17
R4_17 MM8:SRC VDD:58 1.0 $l=0.0150 $w=0.0150 $lvl=17
R4_18 MM7:BULK VDD:45 0.1 $l=0.0060 $w=0.0600 $lvl=18
R4_19 MM7:BULK VDD:42 0.1 $l=0.0060 $w=0.0600 $lvl=18
R4_20 MM7:SRC VDD:46 2.0 $l=0.0150 $w=0.0075 $lvl=17
R4_21 MM7:SRC VDD:14 2.0 $l=0.0150 $w=0.0075 $lvl=17
R4_22 MM7:SRC VDD:57 1.0 $l=0.0150 $w=0.0150 $lvl=17
R4_23 MM6:BULK VDD:43 0.1 $l=0.0060 $w=0.0600 $lvl=18
R4_24 MM6:BULK VDD:40 0.1 $l=0.0060 $w=0.0600 $lvl=18
R4_25 VDD:12 VDD:55 2.73284 $l=0.0150 $w=0.0225 $lvl=17
R4_26 VDD:13 VDD:56 2.73284 $l=0.0150 $w=0.0225 $lvl=17
R4_27 VDD:14 VDD:57 2.73284 $l=0.0150 $w=0.0225 $lvl=17
R4_28 VDD:15 VDD:58 2.73284 $l=0.0150 $w=0.0225 $lvl=17
R4_29 VDD:16 VDD:49 10.4167 $l=0.0300 $w=0.0120 $lvl=9
R4_30 VDD:16 VDD:17 14.5833 $l=0.0420 $w=0.0120 $lvl=9
R4_31 VDD:16 VDD:52 31.764 $a=0.00028800 $lvl=31
R4_32 VDD:17 VDD:18 63.5281 $a=0.00014400 $lvl=30
R4_33 VDD:17 VDD:19 14.5833 $l=0.0420 $w=0.0120 $lvl=9
R4_34 VDD:18 VDD:52 50.1851 $l=0.0420 $w=0.0120 $lvl=14
R4_35 VDD:18 VDD:51 50.1851 $l=0.0420 $w=0.0120 $lvl=14
R4_36 VDD:19 VDD:20 14.5833 $l=0.0420 $w=0.0120 $lvl=9
R4_37 VDD:19 VDD:51 31.764 $a=0.00028800 $lvl=31
R4_38 VDD:20 VDD_1 14.5833 $l=0.0420 $w=0.0120 $lvl=9
R4_39 VDD:20 VDD:21 63.5281 $a=0.00014400 $lvl=30
R4_40 VDD:21 VDD:51 50.1851 $l=0.0420 $w=0.0120 $lvl=14
R4_41 VDD:21 VDD:22 55.4677 $l=0.0420 $w=0.0120 $lvl=14
R4_42 VDD:22 VDD:24 55.4677 $l=0.0420 $w=0.0120 $lvl=14
R4_43 VDD:22 VDD_1 63.5281 $a=0.00014400 $lvl=30
R4_44 VDD:23 VDD_1 14.5833 $l=0.0420 $w=0.0120 $lvl=9
R4_45 VDD:23 VDD:24 63.5281 $a=0.00014400 $lvl=30
R4_46 VDD:23 VDD:25 14.5833 $l=0.0420 $w=0.0120 $lvl=9
R4_47 VDD:24 VDD:50 50.1851 $l=0.0420 $w=0.0120 $lvl=14
R4_48 VDD:25 VDD:26 14.5833 $l=0.0420 $w=0.0120 $lvl=9
R4_49 VDD:25 VDD:50 31.764 $a=0.00028800 $lvl=31
R4_50 VDD:26 VDD:27 63.5281 $a=0.00014400 $lvl=30
R4_51 VDD:26 VDD:28 14.5833 $l=0.0420 $w=0.0120 $lvl=9
R4_52 VDD:27 VDD:50 50.1851 $l=0.0420 $w=0.0120 $lvl=14
R4_53 VDD:27 VDD:29 50.1851 $l=0.0420 $w=0.0120 $lvl=14
R4_54 VDD:28 VDD:29 31.764 $a=0.00028800 $lvl=31
R4_55 VDD:28 VDD:59 10.4167 $l=0.0300 $w=0.0120 $lvl=9
R4_56 VDD:29 VDD:48 8.89907 $l=0.0150 $w=0.0200 $lvl=13
R4_57 VDD:29 VDD:54 34.3372 $l=0.0300 $w=0.0120 $lvl=14
R4_58 VDD:30 VDD:32 0.406667 $l=0.0305 $w=0.0750 $lvl=18
R4_59 VDD:31 VDD:55 2.73284 $l=0.0150 $w=0.0225 $lvl=17
R4_60 VDD:31 VDD:52 8.89907 $l=0.0150 $w=0.0200 $lvl=13
R4_61 VDD:33 VDD:34 0.416667 $l=0.0250 $w=0.0600 $lvl=18
R4_62 VDD:33 VDD:36 0.366667 $l=0.0220 $w=0.0600 $lvl=18
R4_63 VDD:35 VDD:36 0.416667 $l=0.0250 $w=0.0600 $lvl=18
R4_64 VDD:37 VDD:56 2.73284 $l=0.0150 $w=0.0225 $lvl=17
R4_65 VDD:37 VDD:51 8.89907 $l=0.0150 $w=0.0200 $lvl=13
R4_66 VDD:38 VDD:39 0.5 $l=0.0300 $w=0.0600 $lvl=18
R4_67 VDD:40 VDD:41 0.5 $l=0.0300 $w=0.0600 $lvl=18
R4_68 VDD:42 VDD:43 0.5 $l=0.0300 $w=0.0600 $lvl=18
R4_69 VDD:44 VDD:45 0.416667 $l=0.0250 $w=0.0600 $lvl=18
R4_70 VDD:44 VDD:47 0.366667 $l=0.0220 $w=0.0600 $lvl=18
R4_71 VDD:46 VDD:57 2.73284 $l=0.0150 $w=0.0225 $lvl=17
R4_72 VDD:46 VDD:50 8.89907 $l=0.0150 $w=0.0200 $lvl=13
R4_73 VDD:48 VDD:58 2.73284 $l=0.0150 $w=0.0225 $lvl=17