*
*|DSPF 1.3
*|DESIGN XOR3x1
*|DATE "Tue Oct 15 21:11:35 2024"
*|VENDOR "Synopsys"
*|PROGRAM "StarRC"
*|VERSION "V-2023.12-SP5"
*|DIVIDER .
*|DELIMITER :
**FORMAT SPF
*

** COMMENTS

** OPERATING_TEMPERATURE 25
** GLOBAL_TEMPERATURE 25
** 
** TCAD_GRD_FILE /home/gtcad/ctsai314/ITF_Modification/0_reference/3nm_FF_noBPR.nxtgrd
**   TCAD_TIME_STAMP Tue Sep 3 21:56:12 2024
**   TCADGRD_VERSION 89

.SUBCKT XOR3x1 A B C VDD VSS Y

*|GROUND_NET 0

*LAYER_MAP

*0 SUBSTRATE
*1 m9    ITF=M9
*2 m8    ITF=M8
*3 m7    ITF=M7
*4 m6    ITF=M6
*5 m5    ITF=M5
*6 m4    ITF=M4
*7 m3    ITF=M3
*8 m2    ITF=M2
*9 m1    ITF=M1
*10 fpoly    ITF=Gate
*11 ngate    ITF=Gate
*12 pgate    ITF=Gate
*13 lisd    ITF=LISD
*14 lig    ITF=LIG
*15 sdt    ITF=SDT
*16 nsd    ITF=Active
*17 psd    ITF=Active
*18 pselect    ITF=Active
*19 well    ITF=Active
*20 sub    ITF=Active
*21 nselect    ITF=Active
*22 v8    ITF=V8
*23 v7    ITF=V7
*24 v6    ITF=V6
*25 v5    ITF=V5
*26 v4    ITF=V4
*27 v3    ITF=V3
*28 v2    ITF=V2
*29 v1    ITF=V1
*30 v0lig    ITF=V0LIG
*31 v0lisd    ITF=V0LISD
*32 well_pin    ITF=Active
*33 M1_pin    ITF=M1
*34 M2_pin    ITF=M2
*35 M3_pin    ITF=M3
*36 M4_pin    ITF=M4
*37 M5_pin    ITF=M5
*38 M6_pin    ITF=M6
*39 M7_pin    ITF=M7
*40 M8_pin    ITF=M8
*41 M9_pin    ITF=M9

*|NET A 2.45781e-05PF
*|P (A B 0 0.0630 0.0480) // $llx=0.0620 $lly=0.0470 $urx=0.0640 $ury=0.0490 $lvl=33
*|I (MM8:GATE MM8 GATE I 3.6e-19 0.0840 0.0300) // $llx=0.0840 $lly=0.0300 $urx=0.0840 $ury=0.0300 $lvl=11
*|I (MM16:GATE MM16 GATE I 3.6e-19 0.0420 0.0300) // $llx=0.0420 $lly=0.0300 $urx=0.0420 $ury=0.0300 $lvl=11
*|I (MM13:GATE MM13 GATE I 3.6e-19 0.0840 0.0900) // $llx=0.0840 $lly=0.0900 $urx=0.0840 $ury=0.0900 $lvl=12
*|I (MM17:GATE MM17 GATE I 3.6e-19 0.0420 0.0900) // $llx=0.0420 $lly=0.0900 $urx=0.0420 $ury=0.0900 $lvl=12
*|S (A:6 0.0420 0.0150) // $llx=0.0360 $lly=0.0150 $urx=0.0480 $ury=0.0150 $lvl=10
*|S (A:7 0.0420 0.0750) // $llx=0.0360 $lly=0.0750 $urx=0.0480 $ury=0.0750 $lvl=10
*|S (A:8 0.0420 0.1050) // $llx=0.0360 $lly=0.1050 $urx=0.0480 $ury=0.1050 $lvl=12
*|S (A:9 0.0420 0.1100) // $llx=0.0360 $lly=0.1100 $urx=0.0480 $ury=0.1100 $lvl=10
*|S (A:10 0.0840 0.0150) // $llx=0.0780 $lly=0.0150 $urx=0.0900 $ury=0.0150 $lvl=10
*|S (A:11 0.0840 0.0750) // $llx=0.0780 $lly=0.0750 $urx=0.0900 $ury=0.0750 $lvl=10
*|S (A:12 0.0840 0.1050) // $llx=0.0780 $lly=0.1050 $urx=0.0900 $ury=0.1050 $lvl=12
*|S (A:13 0.0840 0.1100) // $llx=0.0780 $lly=0.1100 $urx=0.0900 $ury=0.1100 $lvl=10
*|S (A:14 0.0420 0.0480) // $llx=0.0360 $lly=0.0420 $urx=0.0480 $ury=0.0540 $lvl=9
*|S (A:15 0.0420 0.0480) // $llx=0.0360 $lly=0.0420 $urx=0.0480 $ury=0.0540 $lvl=10
*|S (A:16 0.0840 0.0480) // $llx=0.0780 $lly=0.0420 $urx=0.0900 $ury=0.0540 $lvl=9
*|S (A:17 0.0840 0.0480) // $llx=0.0780 $lly=0.0420 $urx=0.0900 $ury=0.0540 $lvl=10
*|S (A:18 0.0900 0.0480) // $llx=0.0900 $lly=0.0420 $urx=0.0900 $ury=0.0540 $lvl=9
*|S (A:19 0.0420 0.1020) // $llx=0.0360 $lly=0.1020 $urx=0.0480 $ury=0.1020 $lvl=9
*|S (A:20 0.0420 0.0100) // $llx=0.0360 $lly=0.0100 $urx=0.0480 $ury=0.0100 $lvl=10
*|S (A:21 0.0840 0.0100) // $llx=0.0780 $lly=0.0100 $urx=0.0900 $ury=0.0100 $lvl=10
Cg1_1 A:6 0 6.11935e-20
Cg1_2 A:7 0 2.69338e-19
Cg1_3 A:8 0 3.68393e-19
Cg1_4 A:9 0 1.74064e-19
Cg1_5 A:10 0 6.11935e-20
Cg1_6 A:11 0 2.73484e-19
Cg1_7 A:12 0 3.68393e-19
Cg1_8 A:13 0 1.74064e-19
Cg1_9 A:15 0 2.88587e-19
Cg1_10 A:17 0 2.86523e-19
Cg1_11 A:18 0 1.45015e-18
Cg1_12 A:19 0 2.23811e-18
R1_1 A A:16 7.29167 $l=0.0210 $w=0.0120 $lvl=9
R1_2 A A:14 7.29167 $l=0.0210 $w=0.0120 $lvl=9
R1_3 MM8:GATE A:17 6.57895 $l=0.0180 $w=0.0120 $lvl=11
R1_4 MM8:GATE A:10 6.57895 $l=0.0150 $w=0.0120 $lvl=11
R1_5 MM16:GATE A:15 6.57895 $l=0.0180 $w=0.0120 $lvl=11
R1_6 MM16:GATE A:6 6.57895 $l=0.0150 $w=0.0120 $lvl=11
R1_7 MM13:GATE A:12 6.57895 $l=0.0150 $w=0.0120 $lvl=12
R1_8 MM13:GATE A:11 6.57895 $l=0.0150 $w=0.0120 $lvl=12
R1_9 MM17:GATE A:8 6.57895 $l=0.0150 $w=0.0120 $lvl=12
R1_10 MM17:GATE A:7 6.57895 $l=0.0150 $w=0.0120 $lvl=12
R1_11 A:6 A:20 2.19298 $l=0.0050 $w=0.0120 $lvl=10
R1_12 A:7 A:15 11.8421 $l=0.0270 $w=0.0120 $lvl=10
R1_13 A:8 A:9 2.19298 $l=0.0050 $w=0.0120 $lvl=10
R1_14 A:10 A:21 2.19298 $l=0.0050 $w=0.0120 $lvl=10
R1_15 A:11 A:17 11.8421 $l=0.0270 $w=0.0120 $lvl=10
R1_16 A:12 A:13 2.19298 $l=0.0050 $w=0.0120 $lvl=10
R1_17 A:14 A:15 63.5281 $a=0.00014400 $lvl=30
R1_18 A:14 A:19 18.75 $l=0.0540 $w=0.0120 $lvl=9
R1_19 A:16 A:17 63.5281 $a=0.00014400 $lvl=30
R1_20 A:16 A:18 2.08333 $l=0.0060 $w=0.0120 $lvl=9

*|NET B 2.22115e-05PF
*|P (B B 0 0.3570 0.0480) // $llx=0.3560 $lly=0.0470 $urx=0.3580 $ury=0.0490 $lvl=33
*|I (MM5:GATE MM5 GATE I 3.6e-19 0.3780 0.0900) // $llx=0.3780 $lly=0.0900 $urx=0.3780 $ury=0.0900 $lvl=12
*|I (MM19:GATE MM19 GATE I 3.6e-19 0.3360 0.0900) // $llx=0.3360 $lly=0.0900 $urx=0.3360 $ury=0.0900 $lvl=12
*|I (MM0:GATE MM0 GATE I 3.6e-19 0.3780 0.0300) // $llx=0.3780 $lly=0.0300 $urx=0.3780 $ury=0.0300 $lvl=11
*|I (MM18:GATE MM18 GATE I 3.6e-19 0.3360 0.0300) // $llx=0.3360 $lly=0.0300 $urx=0.3360 $ury=0.0300 $lvl=11
*|S (B:6 0.3360 0.0150) // $llx=0.3300 $lly=0.0150 $urx=0.3420 $ury=0.0150 $lvl=10
*|S (B:7 0.3360 0.0750) // $llx=0.3300 $lly=0.0750 $urx=0.3420 $ury=0.0750 $lvl=10
*|S (B:8 0.3360 0.1050) // $llx=0.3300 $lly=0.1050 $urx=0.3420 $ury=0.1050 $lvl=12
*|S (B:9 0.3360 0.1100) // $llx=0.3300 $lly=0.1100 $urx=0.3420 $ury=0.1100 $lvl=10
*|S (B:10 0.3780 0.0150) // $llx=0.3720 $lly=0.0150 $urx=0.3840 $ury=0.0150 $lvl=10
*|S (B:11 0.3780 0.0750) // $llx=0.3720 $lly=0.0750 $urx=0.3840 $ury=0.0750 $lvl=10
*|S (B:12 0.3780 0.1050) // $llx=0.3720 $lly=0.1050 $urx=0.3840 $ury=0.1050 $lvl=12
*|S (B:13 0.3780 0.1100) // $llx=0.3720 $lly=0.1100 $urx=0.3840 $ury=0.1100 $lvl=10
*|S (B:14 0.3360 0.0480) // $llx=0.3300 $lly=0.0420 $urx=0.3420 $ury=0.0540 $lvl=9
*|S (B:15 0.3360 0.0480) // $llx=0.3300 $lly=0.0420 $urx=0.3420 $ury=0.0540 $lvl=10
*|S (B:16 0.3780 0.0480) // $llx=0.3720 $lly=0.0420 $urx=0.3840 $ury=0.0540 $lvl=9
*|S (B:17 0.3780 0.0480) // $llx=0.3720 $lly=0.0420 $urx=0.3840 $ury=0.0540 $lvl=10
*|S (B:18 0.3300 0.0480) // $llx=0.3300 $lly=0.0420 $urx=0.3300 $ury=0.0540 $lvl=9
*|S (B:19 0.3570 0.0780) // $llx=0.3510 $lly=0.0780 $urx=0.3630 $ury=0.0780 $lvl=9
*|S (B:20 0.3360 0.0100) // $llx=0.3300 $lly=0.0100 $urx=0.3420 $ury=0.0100 $lvl=10
*|S (B:21 0.3780 0.0100) // $llx=0.3720 $lly=0.0100 $urx=0.3840 $ury=0.0100 $lvl=10
*|S (B:22 0.3840 0.0480) // $llx=0.3840 $lly=0.0420 $urx=0.3840 $ury=0.0540 $lvl=9
Cg2_1 B:6 0 6.11935e-20
Cg2_2 B:7 0 2.72156e-19
Cg2_3 B:8 0 3.68393e-19
Cg2_4 B:9 0 1.74064e-19
Cg2_5 B:10 0 6.11935e-20
Cg2_6 B:11 0 2.73484e-19
Cg2_7 B:12 0 3.68393e-19
Cg2_8 B:13 0 1.74064e-19
Cg2_9 B:15 0 2.87531e-19
Cg2_10 B:17 0 2.86943e-19
Cg2_11 B:18 0 1.14578e-18
Cg2_12 B:19 0 5.19887e-19
R2_1 B B:19 10.4167 $l=0.0300 $w=0.0120 $lvl=9
R2_2 B B:16 7.29167 $l=0.0210 $w=0.0120 $lvl=9
R2_3 B B:14 7.29167 $l=0.0210 $w=0.0120 $lvl=9
R2_4 MM5:GATE B:12 6.57895 $l=0.0150 $w=0.0120 $lvl=12
R2_5 MM5:GATE B:11 6.57895 $l=0.0150 $w=0.0120 $lvl=12
R2_6 MM19:GATE B:8 6.57895 $l=0.0150 $w=0.0120 $lvl=12
R2_7 MM19:GATE B:7 6.57895 $l=0.0150 $w=0.0120 $lvl=12
R2_8 MM0:GATE B:10 6.57895 $l=0.0150 $w=0.0120 $lvl=11
R2_9 MM0:GATE B:17 6.57895 $l=0.0180 $w=0.0120 $lvl=11
R2_10 MM18:GATE B:6 6.57895 $l=0.0150 $w=0.0120 $lvl=11
R2_11 MM18:GATE B:15 6.57895 $l=0.0180 $w=0.0120 $lvl=11
R2_12 B:6 B:20 2.19298 $l=0.0050 $w=0.0120 $lvl=10
R2_13 B:7 B:15 11.8421 $l=0.0270 $w=0.0120 $lvl=10
R2_14 B:8 B:9 2.19298 $l=0.0050 $w=0.0120 $lvl=10
R2_15 B:10 B:21 2.19298 $l=0.0050 $w=0.0120 $lvl=10
R2_16 B:11 B:17 11.8421 $l=0.0270 $w=0.0120 $lvl=10
R2_17 B:12 B:13 2.19298 $l=0.0050 $w=0.0120 $lvl=10
R2_18 B:14 B:15 63.5281 $a=0.00014400 $lvl=30
R2_19 B:14 B:18 2.08333 $l=0.0060 $w=0.0120 $lvl=9
R2_20 B:16 B:17 63.5281 $a=0.00014400 $lvl=30
R2_21 B:16 B:22 2.08333 $l=0.0060 $w=0.0120 $lvl=9

*|NET C 6.13952e-05PF
*|P (C B 0 0.6090 0.0600) // $llx=0.6030 $lly=0.0540 $urx=0.6150 $ury=0.0660 $lvl=33
*|I (MM21:GATE MM21 GATE I 3.6e-19 0.5880 0.0300) // $llx=0.5880 $lly=0.0300 $urx=0.5880 $ury=0.0300 $lvl=11
*|I (MM20:GATE MM20 GATE I 3.6e-19 0.5880 0.0900) // $llx=0.5880 $lly=0.0900 $urx=0.5880 $ury=0.0900 $lvl=12
*|I (MM6:GATE MM6 GATE I 3.6e-19 0.5040 0.0900) // $llx=0.5040 $lly=0.0900 $urx=0.5040 $ury=0.0900 $lvl=12
*|I (MM1:GATE MM1 GATE I 3.6e-19 0.4200 0.0300) // $llx=0.4200 $lly=0.0300 $urx=0.4200 $ury=0.0300 $lvl=11
*|S (C:6 0.4200 0.0150) // $llx=0.4140 $lly=0.0150 $urx=0.4260 $ury=0.0150 $lvl=10
*|S (C:7 0.5040 0.1050) // $llx=0.4980 $lly=0.1050 $urx=0.5100 $ury=0.1050 $lvl=12
*|S (C:8 0.5040 0.1100) // $llx=0.4980 $lly=0.1100 $urx=0.5100 $ury=0.1100 $lvl=10
*|S (C:9 0.5880 0.0150) // $llx=0.5820 $lly=0.0150 $urx=0.5940 $ury=0.0150 $lvl=10
*|S (C:10 0.5880 0.0450) // $llx=0.5820 $lly=0.0450 $urx=0.5940 $ury=0.0450 $lvl=11
*|S (C:11 0.5880 0.0750) // $llx=0.5820 $lly=0.0750 $urx=0.5940 $ury=0.0750 $lvl=10
*|S (C:12 0.5880 0.1050) // $llx=0.5820 $lly=0.1050 $urx=0.5940 $ury=0.1050 $lvl=12
*|S (C:13 0.5880 0.1100) // $llx=0.5820 $lly=0.1100 $urx=0.5940 $ury=0.1100 $lvl=10
*|S (C:14 0.5880 0.0600) // $llx=0.5820 $lly=0.0540 $urx=0.5940 $ury=0.0660 $lvl=10
*|S (C:15 0.4200 0.0480) // $llx=0.4140 $lly=0.0420 $urx=0.4260 $ury=0.0540 $lvl=9
*|S (C:16 0.4200 0.0480) // $llx=0.4140 $lly=0.0420 $urx=0.4260 $ury=0.0540 $lvl=10
*|S (C:17 0.5040 0.0720) // $llx=0.4980 $lly=0.0660 $urx=0.5100 $ury=0.0780 $lvl=9
*|S (C:18 0.5040 0.0720) // $llx=0.4980 $lly=0.0660 $urx=0.5100 $ury=0.0780 $lvl=10
*|S (C:19 0.6090 0.0600) // $llx=0.6030 $lly=0.0540 $urx=0.6150 $ury=0.0660 $lvl=14
*|S (C:20 0.4830 0.0600) // $llx=0.4770 $lly=0.0420 $urx=0.4890 $ury=0.0780 $lvl=9
*|S (C:21 0.6090 0.0180) // $llx=0.6030 $lly=0.0180 $urx=0.6150 $ury=0.0180 $lvl=9
*|S (C:22 0.6090 0.1020) // $llx=0.6030 $lly=0.1020 $urx=0.6150 $ury=0.1020 $lvl=9
*|S (C:23 0.4200 0.0100) // $llx=0.4140 $lly=0.0100 $urx=0.4260 $ury=0.0100 $lvl=10
*|S (C:24 0.5880 0.0100) // $llx=0.5820 $lly=0.0100 $urx=0.5940 $ury=0.0100 $lvl=10
*|S (C:25 0.6150 0.0600) // $llx=0.6150 $lly=0.0540 $urx=0.6150 $ury=0.0660 $lvl=14
*|S (C:26 0.4140 0.0480) // $llx=0.4140 $lly=0.0420 $urx=0.4140 $ury=0.0540 $lvl=9
C3_1 C:20 B:18 1.07874e-18
C3_2 C:20 B:19 1.36254e-19
Cg3_3 C 0 2.02354e-18
Cg3_4 C:6 0 6.9987e-20
Cg3_5 C:7 0 3.68393e-19
Cg3_6 C:8 0 1.74064e-19
Cg3_7 C:9 0 3.63205e-19
Cg3_8 C:10 0 3.06394e-19
Cg3_9 C:11 0 1.86084e-18
Cg3_10 C:12 0 2.85632e-19
Cg3_11 C:13 0 4.96236e-19
Cg3_12 C:14 0 4.81049e-19
Cg3_13 C:16 0 5.90325e-19
Cg3_14 C:18 0 2.23065e-19
Cg3_15 C:20 0 1.41428e-18
Cg3_16 C:21 0 1.79508e-18
Cg3_17 C:22 0 9.36258e-19
R3_1 C C:17 36.4583 $l=0.1050 $w=0.0120 $lvl=9
R3_2 C C:19 63.5281 $a=0.00014400 $lvl=30
R3_3 C C:21 16.3194 $l=0.0420 $w=0.0120 $lvl=9
R3_4 C C:22 10.4167 $l=0.0420 $w=0.0120 $lvl=9
R3_5 MM21:GATE C:10 6.57895 $l=0.0150 $w=0.0120 $lvl=11
R3_6 MM21:GATE C:9 6.57895 $l=0.0150 $w=0.0120 $lvl=11
R3_7 MM20:GATE C:12 6.57895 $l=0.0150 $w=0.0120 $lvl=12
R3_8 MM20:GATE C:11 6.57895 $l=0.0150 $w=0.0120 $lvl=12
R3_9 MM6:GATE C:7 6.57895 $l=0.0150 $w=0.0120 $lvl=12
R3_10 MM6:GATE C:18 7.89474 $l=0.0180 $w=0.0120 $lvl=12
R3_11 MM1:GATE C:16 6.57895 $l=0.0180 $w=0.0120 $lvl=11
R3_12 MM1:GATE C:6 6.57895 $l=0.0150 $w=0.0120 $lvl=11
R3_13 C:6 C:23 2.19298 $l=0.0050 $w=0.0120 $lvl=10
R3_14 C:7 C:8 2.19298 $l=0.0050 $w=0.0120 $lvl=10
R3_15 C:9 C:24 2.19298 $l=0.0050 $w=0.0120 $lvl=10
R3_16 C:10 C:14 6.57895 $l=0.0150 $w=0.0120 $lvl=10
R3_17 C:11 C:14 6.57895 $l=0.0150 $w=0.0120 $lvl=10
R3_18 C:12 C:13 2.19298 $l=0.0050 $w=0.0120 $lvl=10
R3_19 C:14 C:19 27.7339 $l=0.0210 $w=0.0120 $lvl=14
R3_20 C:15 C:16 63.5281 $a=0.00014400 $lvl=30
R3_21 C:15 C:26 2.08333 $l=0.0060 $w=0.0120 $lvl=9
R3_22 C:15 C:20 21.875 $l=0.0630 $w=0.0120 $lvl=9
R3_23 C:17 C:18 63.5281 $a=0.00014400 $lvl=30
R3_24 C:17 C:20 7.29167 $l=0.0210 $w=0.0120 $lvl=9
R3_25 C:19 C:25 7.92396 $l=0.0060 $w=0.0120 $lvl=14

*|NET VSS 0.000151285PF
*|P (VSS B 0 0.3150 0.0000) // $llx=0.3090 $lly=-0.0060 $urx=0.3210 $ury=0.0060 $lvl=33
*|I (MM21:SRC MM21 SRC B 0 0.5940 0.0300) // $llx=0.5940 $lly=0.0300 $urx=0.5940 $ury=0.0300 $lvl=16
*|I (MM8:SRC MM8 SRC B 0 0.0780 0.0300) // $llx=0.0780 $lly=0.0300 $urx=0.0780 $ury=0.0300 $lvl=16
*|I (MM16:SRC MM16 SRC B 0 0.0480 0.0300) // $llx=0.0480 $lly=0.0300 $urx=0.0480 $ury=0.0300 $lvl=16
*|I (MM3:SRC MM3 SRC B 0 0.5100 0.0300) // $llx=0.5100 $lly=0.0300 $urx=0.5100 $ury=0.0300 $lvl=16
*|I (MM0:SRC MM0 SRC B 0 0.3720 0.0300) // $llx=0.3720 $lly=0.0300 $urx=0.3720 $ury=0.0300 $lvl=16
*|I (MM18:SRC MM18 SRC B 0 0.3420 0.0300) // $llx=0.3420 $lly=0.0300 $urx=0.3420 $ury=0.0300 $lvl=16
*|I (MM23:SRC MM23 SRC B 0 0.2460 0.0300) // $llx=0.2460 $lly=0.0300 $urx=0.2460 $ury=0.0300 $lvl=16
*|I (MM11:SRC MM11 SRC B 0 0.2160 0.0300) // $llx=0.2160 $lly=0.0300 $urx=0.2160 $ury=0.0300 $lvl=16
*|I (MM10:BULK MM10 BULK B 0 0.1680 0.0300) // $llx=0.1680 $lly=0.0300 $urx=0.1680 $ury=0.0300 $lvl=20
*|I (MM10:BULK MM21 BULK B 0 0.5880 0.0300) // $llx=0.5880 $lly=0.0300 $urx=0.5880 $ury=0.0300 $lvl=20
*|I (MM10:BULK MM9 BULK B 0 0.1260 0.0300) // $llx=0.1260 $lly=0.0300 $urx=0.1260 $ury=0.0300 $lvl=20
*|I (MM10:BULK MM8 BULK B 0 0.0840 0.0300) // $llx=0.0840 $lly=0.0300 $urx=0.0840 $ury=0.0300 $lvl=20
*|I (MM10:BULK MM16 BULK B 0 0.0420 0.0300) // $llx=0.0420 $lly=0.0300 $urx=0.0420 $ury=0.0300 $lvl=20
*|I (MM10:BULK MM3 BULK B 0 0.5040 0.0300) // $llx=0.5040 $lly=0.0300 $urx=0.5040 $ury=0.0300 $lvl=20
*|I (MM10:BULK MM2 BULK B 0 0.4620 0.0300) // $llx=0.4620 $lly=0.0300 $urx=0.4620 $ury=0.0300 $lvl=20
*|I (MM10:BULK MM1 BULK B 0 0.4200 0.0300) // $llx=0.4200 $lly=0.0300 $urx=0.4200 $ury=0.0300 $lvl=20
*|I (MM10:BULK MM0 BULK B 0 0.3780 0.0300) // $llx=0.3780 $lly=0.0300 $urx=0.3780 $ury=0.0300 $lvl=20
*|I (MM10:BULK MM18 BULK B 0 0.3360 0.0300) // $llx=0.3360 $lly=0.0300 $urx=0.3360 $ury=0.0300 $lvl=20
*|I (MM10:BULK MM23 BULK B 0 0.2520 0.0300) // $llx=0.2520 $lly=0.0300 $urx=0.2520 $ury=0.0300 $lvl=20
*|I (MM10:BULK MM11 BULK B 0 0.2100 0.0300) // $llx=0.2100 $lly=0.0300 $urx=0.2100 $ury=0.0300 $lvl=20
*|S (VSS:11 0.0630 0.0150) // $llx=0.0530 $lly=0.0150 $urx=0.0730 $ury=0.0150 $lvl=15
*|S (VSS:12 0.2310 0.0150) // $llx=0.2210 $lly=0.0150 $urx=0.2410 $ury=0.0150 $lvl=15
*|S (VSS:13 0.3570 0.0150) // $llx=0.3470 $lly=0.0150 $urx=0.3670 $ury=0.0150 $lvl=15
*|S (VSS:14 0.5250 0.0150) // $llx=0.5150 $lly=0.0150 $urx=0.5350 $ury=0.0150 $lvl=15
*|S (VSS:15 0.6090 0.0150) // $llx=0.5990 $lly=0.0150 $urx=0.6190 $ury=0.0150 $lvl=15
*|S (VSS:16 0.0210 0.0000) // $llx=0.0150 $lly=-0.0060 $urx=0.0270 $ury=0.0060 $lvl=9
*|S (VSS:17 0.0210 0.0000) // $llx=0.0150 $lly=-0.0060 $urx=0.0270 $ury=0.0060 $lvl=14
*|S (VSS:18 0.0630 0.0000) // $llx=0.0570 $lly=-0.0060 $urx=0.0690 $ury=0.0060 $lvl=9
*|S (VSS:19 0.1050 0.0000) // $llx=0.0990 $lly=-0.0060 $urx=0.1110 $ury=0.0060 $lvl=9
*|S (VSS:20 0.1050 0.0000) // $llx=0.0990 $lly=-0.0060 $urx=0.1110 $ury=0.0060 $lvl=14
*|S (VSS:21 0.1470 0.0000) // $llx=0.1410 $lly=-0.0060 $urx=0.1530 $ury=0.0060 $lvl=9
*|S (VSS:22 0.1470 0.0000) // $llx=0.1410 $lly=-0.0060 $urx=0.1530 $ury=0.0060 $lvl=14
*|S (VSS:23 0.1890 0.0000) // $llx=0.1830 $lly=-0.0060 $urx=0.1950 $ury=0.0060 $lvl=9
*|S (VSS:24 0.1890 0.0000) // $llx=0.1830 $lly=-0.0060 $urx=0.1950 $ury=0.0060 $lvl=14
*|S (VSS:25 0.2310 0.0000) // $llx=0.2250 $lly=-0.0060 $urx=0.2370 $ury=0.0060 $lvl=9
*|S (VSS:26 0.2730 0.0000) // $llx=0.2670 $lly=-0.0060 $urx=0.2790 $ury=0.0060 $lvl=9
*|S (VSS:27 0.2730 0.0000) // $llx=0.2670 $lly=-0.0060 $urx=0.2790 $ury=0.0060 $lvl=14
*|S (VSS:28 0.3150 0.0000) // $llx=0.3090 $lly=-0.0060 $urx=0.3210 $ury=0.0060 $lvl=14
*|S (VSS:29 0.3570 0.0000) // $llx=0.3510 $lly=-0.0060 $urx=0.3630 $ury=0.0060 $lvl=9
*|S (VSS:30 0.3990 0.0000) // $llx=0.3930 $lly=-0.0060 $urx=0.4050 $ury=0.0060 $lvl=9
*|S (VSS:31 0.3990 0.0000) // $llx=0.3930 $lly=-0.0060 $urx=0.4050 $ury=0.0060 $lvl=14
*|S (VSS:32 0.4410 0.0000) // $llx=0.4350 $lly=-0.0060 $urx=0.4470 $ury=0.0060 $lvl=9
*|S (VSS:33 0.4410 0.0000) // $llx=0.4350 $lly=-0.0060 $urx=0.4470 $ury=0.0060 $lvl=14
*|S (VSS:34 0.4830 0.0000) // $llx=0.4770 $lly=-0.0060 $urx=0.4890 $ury=0.0060 $lvl=9
*|S (VSS:35 0.4830 0.0000) // $llx=0.4770 $lly=-0.0060 $urx=0.4890 $ury=0.0060 $lvl=14
*|S (VSS:36 0.5250 0.0000) // $llx=0.5190 $lly=-0.0060 $urx=0.5310 $ury=0.0060 $lvl=9
*|S (VSS:37 0.5670 0.0000) // $llx=0.5610 $lly=-0.0060 $urx=0.5730 $ury=0.0060 $lvl=9
*|S (VSS:38 0.5670 0.0000) // $llx=0.5610 $lly=-0.0060 $urx=0.5730 $ury=0.0060 $lvl=14
*|S (VSS:39 0.6090 0.0000) // $llx=0.6030 $lly=-0.0060 $urx=0.6150 $ury=0.0060 $lvl=9
*|S (VSS:40 0.6090 0.0000) // $llx=0.5990 $lly=-0.0060 $urx=0.6190 $ury=0.0060 $lvl=13
*|S (VSS:41 0.0630 0.0450) // $llx=0.0530 $lly=0.0450 $urx=0.0730 $ury=0.0450 $lvl=15
*|S (VSS:42 0.2310 0.0450) // $llx=0.2210 $lly=0.0450 $urx=0.2410 $ury=0.0450 $lvl=15
*|S (VSS:43 0.3570 0.0450) // $llx=0.3470 $lly=0.0450 $urx=0.3670 $ury=0.0450 $lvl=15
*|S (VSS:44 0.5250 0.0450) // $llx=0.5150 $lly=0.0450 $urx=0.5350 $ury=0.0450 $lvl=15
*|S (VSS:45 0.6190 0.0600) // $llx=0.6190 $lly=-0.0100 $urx=0.6300 $ury=0.1300 $lvl=20
*|S (VSS:46 0.6090 0.0450) // $llx=0.5990 $lly=0.0450 $urx=0.6190 $ury=0.0450 $lvl=15
*|S (VSS:47 0.6620 0.0600) // $llx=0.6620 $lly=-0.0100 $urx=0.6620 $ury=0.1300 $lvl=20
*|S (VSS:48 -0.0090 0.0000) // $llx=-0.0090 $lly=-0.0060 $urx=-0.0090 $ury=0.0060 $lvl=9
*|S (VSS:49 0.6390 0.0000) // $llx=0.6390 $lly=-0.0060 $urx=0.6390 $ury=0.0060 $lvl=9
*|S (VSS:50 0.5250 0.0000) // $llx=0.5150 $lly=-0.0060 $urx=0.5350 $ury=0.0060 $lvl=14
*|S (VSS:51 0.3570 0.0000) // $llx=0.3470 $lly=-0.0060 $urx=0.3670 $ury=0.0060 $lvl=14
*|S (VSS:52 0.2310 0.0000) // $llx=0.2210 $lly=-0.0060 $urx=0.2410 $ury=0.0060 $lvl=14
*|S (VSS:53 0.0630 0.0000) // $llx=0.0530 $lly=-0.0060 $urx=0.0730 $ury=0.0060 $lvl=14
*|S (VSS:54 -0.0090 0.0000) // $llx=-0.0090 $lly=-0.0060 $urx=-0.0090 $ury=0.0060 $lvl=14
*|S (VSS:55 0.6390 0.0000) // $llx=0.6390 $lly=-0.0060 $urx=0.6390 $ury=0.0060 $lvl=14
*|S (VSS:56 0.0630 0.0300) // $llx=0.0530 $lly=0.0300 $urx=0.0730 $ury=0.0300 $lvl=15
*|S (VSS:57 0.2310 0.0300) // $llx=0.2210 $lly=0.0300 $urx=0.2410 $ury=0.0300 $lvl=15
*|S (VSS:58 0.3570 0.0300) // $llx=0.3470 $lly=0.0300 $urx=0.3670 $ury=0.0300 $lvl=15
*|S (VSS:59 0.5250 0.0300) // $llx=0.5150 $lly=0.0300 $urx=0.5350 $ury=0.0300 $lvl=15
*|S (VSS:60 0.6090 0.0300) // $llx=0.5990 $lly=0.0300 $urx=0.6190 $ury=0.0300 $lvl=15
C4_1 VSS:40 A:7 4.33548e-20
C4_2 VSS:40 A:11 4.33548e-20
C4_3 MM10:BULK A:18 2.4679e-19
C4_4 VSS:11 A:18 3.78079e-20
C4_5 VSS:41 A:18 3.99757e-20
C4_6 VSS:48 A:18 2.35226e-19
C4_7 VSS:49 A:18 2.35226e-19
C4_8 VSS:53 A:18 7.53743e-20
C4_9 MM10:BULK A:19 2.31845e-19
C4_10 VSS:40 B:7 4.33548e-20
C4_11 VSS:40 B:11 4.33548e-20
C4_12 MM10:BULK B:18 2.16353e-19
C4_13 VSS:13 B:18 3.78079e-20
C4_14 VSS:43 B:18 3.99757e-20
C4_15 VSS:48 B:18 2.3953e-19
C4_16 VSS:49 B:18 2.3953e-19
C4_17 VSS:51 B:18 7.53743e-20
C4_18 MM10:BULK B:19 1.61608e-19
C4_19 MM10:BULK C 4.88851e-19
C4_20 VSS:40 C 1.89649e-20
C4_21 VSS:48 C 4.04194e-19
C4_22 VSS:49 C 4.04194e-19
C4_23 VSS:40 C:9 5.38371e-19
C4_24 VSS:48 C:9 5.26196e-21
C4_25 VSS:49 C:9 5.26196e-21
C4_26 VSS:40 C:10 9.37832e-21
C4_27 VSS:40 C:18 2.43055e-21
C4_28 MM10:BULK C:20 4.2107e-19
C4_29 VSS:40 C:20 2.59607e-20
C4_30 VSS:48 C:20 5.55996e-19
C4_31 VSS:49 C:20 5.55996e-19
C4_32 MM10:BULK C:21 1.82212e-19
C4_33 VSS:15 C:21 1.1096e-19
C4_34 VSS:40 C:21 7.88569e-19
C4_35 VSS:45 C:21 1.62778e-19
C4_36 VSS:46 C:21 3.78706e-20
C4_37 VSS:47 C:21 1.58408e-36
C4_38 VSS:48 C:21 1.01175e-18
C4_39 VSS:49 C:21 1.01175e-18
C4_40 MM10:BULK C:22 3.16816e-36
Cg4_41 MM10:BULK 0 1.90311e-17
Cg4_42 VSS:11 0 2.55569e-19
Cg4_43 VSS:12 0 2.73586e-19
Cg4_44 VSS:13 0 2.55569e-19
Cg4_45 VSS:14 0 1.78742e-19
Cg4_46 VSS:15 0 1.78742e-19
Cg4_47 VSS:40 0 5.64537e-18
Cg4_48 VSS:41 0 6.16144e-19
Cg4_49 VSS:42 0 6.21225e-19
Cg4_50 VSS:43 0 6.16144e-19
Cg4_51 VSS:44 0 5.17687e-19
Cg4_52 VSS:45 0 1.05618e-18
Cg4_53 VSS:46 0 5.17687e-19
Cg4_54 VSS:48 0 8.05967e-18
Cg4_55 VSS:49 0 8.05967e-18
Cg4_56 VSS:50 0 1.99486e-19
Cg4_57 VSS:51 0 3.25789e-19
Cg4_58 VSS:52 0 3.2723e-19
Cg4_59 VSS:53 0 3.25286e-19
R4_1 VSS VSS:29 14.5833 $l=0.0420 $w=0.0120 $lvl=9
R4_2 VSS VSS:26 14.5833 $l=0.0420 $w=0.0120 $lvl=9
R4_3 VSS VSS:28 63.5281 $a=0.00014400 $lvl=30
R4_4 MM21:SRC VSS:46 2.0 $l=0.0150 $w=0.0075 $lvl=16
R4_5 MM21:SRC VSS:15 2.0 $l=0.0150 $w=0.0075 $lvl=16
R4_6 MM21:SRC VSS:60 1.0 $l=0.0150 $w=0.0150 $lvl=16
R4_7 MM8:SRC VSS:41 2.0 $l=0.0150 $w=0.0075 $lvl=16
R4_8 MM8:SRC VSS:11 2.0 $l=0.0150 $w=0.0075 $lvl=16
R4_9 MM8:SRC VSS:56 1.0 $l=0.0150 $w=0.0150 $lvl=16
R4_10 MM16:SRC VSS:41 2.0 $l=0.0150 $w=0.0075 $lvl=16
R4_11 MM16:SRC VSS:11 2.0 $l=0.0150 $w=0.0075 $lvl=16
R4_12 MM16:SRC VSS:56 1.0 $l=0.0150 $w=0.0150 $lvl=16
R4_13 MM3:SRC VSS:44 2.0 $l=0.0150 $w=0.0075 $lvl=16
R4_14 MM3:SRC VSS:14 2.0 $l=0.0150 $w=0.0075 $lvl=16
R4_15 MM3:SRC VSS:59 1.0 $l=0.0150 $w=0.0150 $lvl=16
R4_16 MM0:SRC VSS:43 2.0 $l=0.0150 $w=0.0075 $lvl=16
R4_17 MM0:SRC VSS:13 2.0 $l=0.0150 $w=0.0075 $lvl=16
R4_18 MM0:SRC VSS:58 1.0 $l=0.0150 $w=0.0150 $lvl=16
R4_19 MM18:SRC VSS:43 2.0 $l=0.0150 $w=0.0075 $lvl=16
R4_20 MM18:SRC VSS:13 2.0 $l=0.0150 $w=0.0075 $lvl=16
R4_21 MM18:SRC VSS:58 1.0 $l=0.0150 $w=0.0150 $lvl=16
R4_22 MM23:SRC VSS:42 2.0 $l=0.0150 $w=0.0075 $lvl=16
R4_23 MM23:SRC VSS:12 2.0 $l=0.0150 $w=0.0075 $lvl=16
R4_24 MM23:SRC VSS:57 1.0 $l=0.0150 $w=0.0150 $lvl=16
R4_25 MM11:SRC VSS:42 2.0 $l=0.0150 $w=0.0075 $lvl=16
R4_26 MM11:SRC VSS:12 2.0 $l=0.0150 $w=0.0075 $lvl=16
R4_27 MM11:SRC VSS:57 1.0 $l=0.0150 $w=0.0150 $lvl=16
R4_28 MM10:BULK VSS:45 0.356491 $l=0.4510 $w=0.1400 $lvl=20
R4_29 VSS:11 VSS:56 1.87763 $l=0.0150 $w=0.0250 $lvl=16
R4_30 VSS:11 VSS:53 8.89907 $l=0.0150 $w=0.0200 $lvl=13
R4_31 VSS:12 VSS:57 1.87763 $l=0.0150 $w=0.0250 $lvl=16
R4_32 VSS:12 VSS:52 8.89907 $l=0.0150 $w=0.0200 $lvl=13
R4_33 VSS:13 VSS:58 1.87763 $l=0.0150 $w=0.0250 $lvl=16
R4_34 VSS:13 VSS:51 8.89907 $l=0.0150 $w=0.0200 $lvl=13
R4_35 VSS:14 VSS:59 2.73284 $l=0.0150 $w=0.0225 $lvl=16
R4_36 VSS:14 VSS:50 8.89907 $l=0.0150 $w=0.0200 $lvl=13
R4_37 VSS:15 VSS:60 2.73284 $l=0.0150 $w=0.0225 $lvl=16
R4_38 VSS:15 VSS:40 8.89907 $l=0.0150 $w=0.0200 $lvl=13
R4_39 VSS:16 VSS:17 63.5281 $a=0.00014400 $lvl=30
R4_40 VSS:16 VSS:48 10.4167 $l=0.0300 $w=0.0120 $lvl=9
R4_41 VSS:16 VSS:18 14.5833 $l=0.0420 $w=0.0120 $lvl=9
R4_42 VSS:17 VSS:54 39.6198 $l=0.0300 $w=0.0120 $lvl=14
R4_43 VSS:17 VSS:53 50.1851 $l=0.0420 $w=0.0120 $lvl=14
R4_44 VSS:18 VSS:19 14.5833 $l=0.0420 $w=0.0120 $lvl=9
R4_45 VSS:18 VSS:53 31.764 $a=0.00028800 $lvl=31
R4_46 VSS:19 VSS:20 63.5281 $a=0.00014400 $lvl=30
R4_47 VSS:19 VSS:21 14.5833 $l=0.0420 $w=0.0120 $lvl=9
R4_48 VSS:20 VSS:53 50.1851 $l=0.0420 $w=0.0120 $lvl=14
R4_49 VSS:20 VSS:22 55.4677 $l=0.0420 $w=0.0120 $lvl=14
R4_50 VSS:21 VSS:22 63.5281 $a=0.00014400 $lvl=30
R4_51 VSS:21 VSS:23 14.5833 $l=0.0420 $w=0.0120 $lvl=9
R4_52 VSS:22 VSS:24 55.4677 $l=0.0420 $w=0.0120 $lvl=14
R4_53 VSS:23 VSS:24 63.5281 $a=0.00014400 $lvl=30
R4_54 VSS:23 VSS:25 14.5833 $l=0.0420 $w=0.0120 $lvl=9
R4_55 VSS:24 VSS:52 50.1851 $l=0.0420 $w=0.0120 $lvl=14
R4_56 VSS:25 VSS:26 14.5833 $l=0.0420 $w=0.0120 $lvl=9
R4_57 VSS:25 VSS:52 31.764 $a=0.00028800 $lvl=31
R4_58 VSS:26 VSS:27 63.5281 $a=0.00014400 $lvl=30
R4_59 VSS:27 VSS:52 50.1851 $l=0.0420 $w=0.0120 $lvl=14
R4_60 VSS:27 VSS:28 55.4677 $l=0.0420 $w=0.0120 $lvl=14
R4_61 VSS:28 VSS:51 50.1851 $l=0.0420 $w=0.0120 $lvl=14
R4_62 VSS:29 VSS:30 14.5833 $l=0.0420 $w=0.0120 $lvl=9
R4_63 VSS:29 VSS:51 31.764 $a=0.00028800 $lvl=31
R4_64 VSS:30 VSS:31 63.5281 $a=0.00014400 $lvl=30
R4_65 VSS:30 VSS:32 14.5833 $l=0.0420 $w=0.0120 $lvl=9
R4_66 VSS:31 VSS:51 50.1851 $l=0.0420 $w=0.0120 $lvl=14
R4_67 VSS:31 VSS:33 55.4677 $l=0.0420 $w=0.0120 $lvl=14
R4_68 VSS:32 VSS:33 63.5281 $a=0.00014400 $lvl=30
R4_69 VSS:32 VSS:34 14.5833 $l=0.0420 $w=0.0120 $lvl=9
R4_70 VSS:33 VSS:35 55.4677 $l=0.0420 $w=0.0120 $lvl=14
R4_71 VSS:34 VSS:35 63.5281 $a=0.00014400 $lvl=30
R4_72 VSS:34 VSS:36 14.5833 $l=0.0420 $w=0.0120 $lvl=9
R4_73 VSS:35 VSS:50 50.1851 $l=0.0420 $w=0.0120 $lvl=14
R4_74 VSS:36 VSS:37 14.5833 $l=0.0420 $w=0.0120 $lvl=9
R4_75 VSS:36 VSS:50 31.764 $a=0.00028800 $lvl=31
R4_76 VSS:37 VSS:38 63.5281 $a=0.00014400 $lvl=30
R4_77 VSS:37 VSS:39 14.5833 $l=0.0420 $w=0.0120 $lvl=9
R4_78 VSS:38 VSS:50 50.1851 $l=0.0420 $w=0.0120 $lvl=14
R4_79 VSS:38 VSS:40 50.1851 $l=0.0420 $w=0.0120 $lvl=14
R4_80 VSS:39 VSS:40 31.764 $a=0.00028800 $lvl=31
R4_81 VSS:39 VSS:49 10.4167 $l=0.0300 $w=0.0120 $lvl=9
R4_82 VSS:40 VSS:55 34.3372 $l=0.0300 $w=0.0120 $lvl=14
R4_83 VSS:41 VSS:56 1.87763 $l=0.0150 $w=0.0250 $lvl=16
R4_84 VSS:42 VSS:57 1.87763 $l=0.0150 $w=0.0250 $lvl=16
R4_85 VSS:43 VSS:58 1.87763 $l=0.0150 $w=0.0250 $lvl=16
R4_86 VSS:44 VSS:59 2.73284 $l=0.0150 $w=0.0225 $lvl=16
R4_87 VSS:45 VSS:47 0.267857 $l=0.0430 $w=0.1400 $lvl=20
R4_88 VSS:46 VSS:60 2.73284 $l=0.0150 $w=0.0225 $lvl=16
R4_89 VSS:46 VSS:45 0.01 $l=0.0180 $w=100.0000 $lvl=0

*|NET VDD 0.000171339PF
*|P (VDD B 0 0.4530 0.0720) // $llx=0.4520 $lly=0.0710 $urx=0.4540 $ury=0.0710 $lvl=19
*|P (VDD_1 B 0 0.3150 0.1200) // $llx=0.3090 $lly=0.1140 $urx=0.3210 $ury=0.1260 $lvl=33
*|I (MM20:BULK MM20 BULK B 0 0.5880 0.0900) // $llx=0.5880 $lly=0.0900 $urx=0.5880 $ury=0.0900 $lvl=19
*|I (MM20:SRC MM20 SRC B 0 0.5940 0.0900) // $llx=0.5940 $lly=0.0900 $urx=0.5940 $ury=0.0900 $lvl=17
*|I (MM6:BULK MM6 BULK B 0 0.5040 0.0900) // $llx=0.5040 $lly=0.0900 $urx=0.5040 $ury=0.0900 $lvl=19
*|I (MM6:SRC MM6 SRC B 0 0.5100 0.0900) // $llx=0.5100 $lly=0.0900 $urx=0.5100 $ury=0.0900 $lvl=17
*|I (MM7:BULK MM7 BULK B 0 0.4620 0.0900) // $llx=0.4620 $lly=0.0900 $urx=0.4620 $ury=0.0900 $lvl=19
*|I (MM4:BULK MM4 BULK B 0 0.4200 0.0900) // $llx=0.4200 $lly=0.0900 $urx=0.4200 $ury=0.0900 $lvl=19
*|I (MM5:BULK MM5 BULK B 0 0.3780 0.0900) // $llx=0.3780 $lly=0.0900 $urx=0.3780 $ury=0.0900 $lvl=19
*|I (MM5:SRC MM5 SRC B 0 0.3720 0.0900) // $llx=0.3720 $lly=0.0900 $urx=0.3720 $ury=0.0900 $lvl=17
*|I (MM19:BULK MM19 BULK B 0 0.3360 0.0900) // $llx=0.3360 $lly=0.0900 $urx=0.3360 $ury=0.0900 $lvl=19
*|I (MM19:SRC MM19 SRC B 0 0.3420 0.0900) // $llx=0.3420 $lly=0.0900 $urx=0.3420 $ury=0.0900 $lvl=17
*|I (MM22:BULK MM22 BULK B 0 0.2520 0.0900) // $llx=0.2520 $lly=0.0900 $urx=0.2520 $ury=0.0900 $lvl=19
*|I (MM22:SRC MM22 SRC B 0 0.2460 0.0900) // $llx=0.2460 $lly=0.0900 $urx=0.2460 $ury=0.0900 $lvl=17
*|I (MM14:BULK MM14 BULK B 0 0.2100 0.0900) // $llx=0.2100 $lly=0.0900 $urx=0.2100 $ury=0.0900 $lvl=19
*|I (MM14:SRC MM14 SRC B 0 0.2160 0.0900) // $llx=0.2160 $lly=0.0900 $urx=0.2160 $ury=0.0900 $lvl=17
*|I (MM15:BULK MM15 BULK B 0 0.1680 0.0900) // $llx=0.1680 $lly=0.0900 $urx=0.1680 $ury=0.0900 $lvl=19
*|I (MM12:BULK MM12 BULK B 0 0.1260 0.0900) // $llx=0.1260 $lly=0.0900 $urx=0.1260 $ury=0.0900 $lvl=19
*|I (MM13:BULK MM13 BULK B 0 0.0840 0.0900) // $llx=0.0840 $lly=0.0900 $urx=0.0840 $ury=0.0900 $lvl=19
*|I (MM13:SRC MM13 SRC B 0 0.0780 0.0900) // $llx=0.0780 $lly=0.0900 $urx=0.0780 $ury=0.0900 $lvl=17
*|I (MM17:BULK MM17 BULK B 0 0.0420 0.0900) // $llx=0.0420 $lly=0.0900 $urx=0.0420 $ury=0.0900 $lvl=19
*|I (MM17:SRC MM17 SRC B 0 0.0480 0.0900) // $llx=0.0480 $lly=0.0900 $urx=0.0480 $ury=0.0900 $lvl=17
*|S (VDD:22 0.0630 0.0750) // $llx=0.0530 $lly=0.0750 $urx=0.0730 $ury=0.0750 $lvl=15
*|S (VDD:23 0.2310 0.0750) // $llx=0.2210 $lly=0.0750 $urx=0.2410 $ury=0.0750 $lvl=15
*|S (VDD:24 0.3570 0.0750) // $llx=0.3470 $lly=0.0750 $urx=0.3670 $ury=0.0750 $lvl=15
*|S (VDD:25 0.5250 0.0750) // $llx=0.5150 $lly=0.0750 $urx=0.5350 $ury=0.0750 $lvl=15
*|S (VDD:26 0.6090 0.0750) // $llx=0.5990 $lly=0.0750 $urx=0.6190 $ury=0.0750 $lvl=15
*|S (VDD:27 0.0210 0.1200) // $llx=0.0150 $lly=0.1140 $urx=0.0270 $ury=0.1260 $lvl=9
*|S (VDD:28 0.0210 0.1200) // $llx=0.0150 $lly=0.1140 $urx=0.0270 $ury=0.1260 $lvl=14
*|S (VDD:29 0.0630 0.1200) // $llx=0.0570 $lly=0.1140 $urx=0.0690 $ury=0.1260 $lvl=9
*|S (VDD:30 0.0630 0.1200) // $llx=0.0530 $lly=0.1140 $urx=0.0730 $ury=0.1260 $lvl=13
*|S (VDD:31 0.1050 0.1200) // $llx=0.0990 $lly=0.1140 $urx=0.1110 $ury=0.1260 $lvl=9
*|S (VDD:32 0.1050 0.1200) // $llx=0.0990 $lly=0.1140 $urx=0.1110 $ury=0.1260 $lvl=14
*|S (VDD:33 0.1470 0.1200) // $llx=0.1410 $lly=0.1140 $urx=0.1530 $ury=0.1260 $lvl=9
*|S (VDD:34 0.1470 0.1200) // $llx=0.1410 $lly=0.1140 $urx=0.1530 $ury=0.1260 $lvl=14
*|S (VDD:35 0.1890 0.1200) // $llx=0.1830 $lly=0.1140 $urx=0.1950 $ury=0.1260 $lvl=9
*|S (VDD:36 0.1890 0.1200) // $llx=0.1830 $lly=0.1140 $urx=0.1950 $ury=0.1260 $lvl=14
*|S (VDD:37 0.2310 0.1200) // $llx=0.2250 $lly=0.1140 $urx=0.2370 $ury=0.1260 $lvl=9
*|S (VDD:38 0.2310 0.1200) // $llx=0.2210 $lly=0.1140 $urx=0.2410 $ury=0.1260 $lvl=13
*|S (VDD:39 0.2730 0.1200) // $llx=0.2670 $lly=0.1140 $urx=0.2790 $ury=0.1260 $lvl=9
*|S (VDD:40 0.2730 0.1200) // $llx=0.2670 $lly=0.1140 $urx=0.2790 $ury=0.1260 $lvl=14
*|S (VDD:41 0.3150 0.1200) // $llx=0.3090 $lly=0.1140 $urx=0.3210 $ury=0.1260 $lvl=14
*|S (VDD:42 0.3570 0.1200) // $llx=0.3510 $lly=0.1140 $urx=0.3630 $ury=0.1260 $lvl=9
*|S (VDD:43 0.3570 0.1200) // $llx=0.3470 $lly=0.1140 $urx=0.3670 $ury=0.1260 $lvl=13
*|S (VDD:44 0.3990 0.1200) // $llx=0.3930 $lly=0.1140 $urx=0.4050 $ury=0.1260 $lvl=9
*|S (VDD:45 0.3990 0.1200) // $llx=0.3930 $lly=0.1140 $urx=0.4050 $ury=0.1260 $lvl=14
*|S (VDD:46 0.4410 0.1200) // $llx=0.4350 $lly=0.1140 $urx=0.4470 $ury=0.1260 $lvl=9
*|S (VDD:47 0.4410 0.1200) // $llx=0.4350 $lly=0.1140 $urx=0.4470 $ury=0.1260 $lvl=14
*|S (VDD:48 0.4830 0.1200) // $llx=0.4770 $lly=0.1140 $urx=0.4890 $ury=0.1260 $lvl=9
*|S (VDD:49 0.4830 0.1200) // $llx=0.4770 $lly=0.1140 $urx=0.4890 $ury=0.1260 $lvl=14
*|S (VDD:50 0.5250 0.1200) // $llx=0.5190 $lly=0.1140 $urx=0.5310 $ury=0.1260 $lvl=9
*|S (VDD:51 0.5250 0.1200) // $llx=0.5150 $lly=0.1140 $urx=0.5350 $ury=0.1260 $lvl=13
*|S (VDD:52 0.5670 0.1200) // $llx=0.5610 $lly=0.1140 $urx=0.5730 $ury=0.1260 $lvl=9
*|S (VDD:53 0.5670 0.1200) // $llx=0.5610 $lly=0.1140 $urx=0.5730 $ury=0.1260 $lvl=14
*|S (VDD:54 0.6090 0.1200) // $llx=0.6030 $lly=0.1140 $urx=0.6150 $ury=0.1260 $lvl=9
*|S (VDD:55 0.6090 0.1200) // $llx=0.5990 $lly=0.1140 $urx=0.6190 $ury=0.1260 $lvl=13