*
*|DSPF 1.3
*|DESIGN BUFx4
*|DATE "Tue Oct 15 21:09:55 2024"
*|VENDOR "Synopsys"
*|PROGRAM "StarRC"
*|VERSION "V-2023.12-SP5"
*|DIVIDER .
*|DELIMITER :
**FORMAT SPF
*

** COMMENTS

** OPERATING_TEMPERATURE 25
** GLOBAL_TEMPERATURE 25
** 
** TCAD_GRD_FILE /home/gtcad/ctsai314/ITF_Modification/0_reference/3nm_FF_noBPR.nxtgrd
**   TCAD_TIME_STAMP Tue Sep 3 21:56:12 2024
**   TCADGRD_VERSION 89

.SUBCKT BUFx4 A VDD VSS Y

*|GROUND_NET 0

*LAYER_MAP

*0 SUBSTRATE
*1 m9    ITF=M9
*2 m8    ITF=M8
*3 m7    ITF=M7
*4 m6    ITF=M6
*5 m5    ITF=M5
*6 m4    ITF=M4
*7 m3    ITF=M3
*8 m2    ITF=M2
*9 m1    ITF=M1
*10 fpoly    ITF=Gate
*11 ngate    ITF=Gate
*12 pgate    ITF=Gate
*13 lisd    ITF=LISD
*14 lig    ITF=LIG
*15 sdt    ITF=SDT
*16 nsd    ITF=Active
*17 psd    ITF=Active
*18 pselect    ITF=Active
*19 well    ITF=Active
*20 sub    ITF=Active
*21 nselect    ITF=Active
*22 v8    ITF=V8
*23 v7    ITF=V7
*24 v6    ITF=V6
*25 v5    ITF=V5
*26 v4    ITF=V4
*27 v3    ITF=V3
*28 v2    ITF=V2
*29 v1    ITF=V1
*30 v0lig    ITF=V0LIG
*31 v0lisd    ITF=V0LISD
*32 well_pin    ITF=Active
*33 M1_pin    ITF=M1
*34 M2_pin    ITF=M2
*35 M3_pin    ITF=M3
*36 M4_pin    ITF=M4
*37 M5_pin    ITF=M5
*38 M6_pin    ITF=M6
*39 M7_pin    ITF=M7
*40 M8_pin    ITF=M8
*41 M9_pin    ITF=M9

*|NET VSS 0.000101081PF
*|P (VSS B 0 0.2100 0.0000) // $llx=0.2090 $lly=-0.0010 $urx=0.2110 $ury=0.0010 $lvl=33
*|I (MM9:SRC MM9 SRC B 0 0.3420 0.0300) // $llx=0.3420 $lly=0.0300 $urx=0.3420 $ury=0.0300 $lvl=16
*|I (MM7:SRC MM7 SRC B 0 0.2880 0.0300) // $llx=0.2880 $lly=0.0300 $urx=0.2880 $ury=0.0300 $lvl=16
*|I (MM4:SRC MM4 SRC B 0 0.2580 0.0300) // $llx=0.2580 $lly=0.0300 $urx=0.2580 $ury=0.0300 $lvl=16
*|I (MM3:SRC MM3 SRC B 0 0.2040 0.0300) // $llx=0.2040 $lly=0.0300 $urx=0.2040 $ury=0.0300 $lvl=16
*|I (MM15:SRC MM15 SRC B 0 0.1740 0.0300) // $llx=0.1740 $lly=0.0300 $urx=0.1740 $ury=0.0300 $lvl=16
*|I (MM12:SRC MM12 SRC B 0 0.1200 0.0300) // $llx=0.1200 $lly=0.0300 $urx=0.1200 $ury=0.0300 $lvl=16
*|I (MM11:SRC MM11 SRC B 0 0.0900 0.0300) // $llx=0.0900 $lly=0.0300 $urx=0.0900 $ury=0.0300 $lvl=16
*|I (MM0:BULK MM0 BULK B 0 0.0420 0.0300) // $llx=0.0420 $lly=0.0300 $urx=0.0420 $ury=0.0300 $lvl=20
*|I (MM0:SRC MM0 SRC B 0 0.0360 0.0300) // $llx=0.0360 $lly=0.0300 $urx=0.0360 $ury=0.0300 $lvl=16
*|I (MM0:BULK MM9 BULK B 0 0.3360 0.0300) // $llx=0.3360 $lly=0.0300 $urx=0.3360 $ury=0.0300 $lvl=20
*|I (MM0:BULK MM7 BULK B 0 0.2940 0.0300) // $llx=0.2940 $lly=0.0300 $urx=0.2940 $ury=0.0300 $lvl=20
*|I (MM0:BULK MM4 BULK B 0 0.2520 0.0300) // $llx=0.2520 $lly=0.0300 $urx=0.2520 $ury=0.0300 $lvl=20
*|I (MM0:BULK MM3 BULK B 0 0.2100 0.0300) // $llx=0.2100 $lly=0.0300 $urx=0.2100 $ury=0.0300 $lvl=20
*|I (MM0:BULK MM15 BULK B 0 0.1680 0.0300) // $llx=0.1680 $lly=0.0300 $urx=0.1680 $ury=0.0300 $lvl=20
*|I (MM0:BULK MM12 BULK B 0 0.1260 0.0300) // $llx=0.1260 $lly=0.0300 $urx=0.1260 $ury=0.0300 $lvl=20
*|I (MM0:BULK MM11 BULK B 0 0.0840 0.0300) // $llx=0.0840 $lly=0.0300 $urx=0.0840 $ury=0.0300 $lvl=20
*|S (VSS:11 0.0210 0.0150) // $llx=0.0110 $lly=0.0150 $urx=0.0310 $ury=0.0150 $lvl=15
*|S (VSS:12 0.1050 0.0150) // $llx=0.0950 $lly=0.0150 $urx=0.1150 $ury=0.0150 $lvl=15
*|S (VSS:13 0.1890 0.0150) // $llx=0.1790 $lly=0.0150 $urx=0.1990 $ury=0.0150 $lvl=15
*|S (VSS:14 0.2730 0.0150) // $llx=0.2630 $lly=0.0150 $urx=0.2830 $ury=0.0150 $lvl=15
*|S (VSS:15 0.3570 0.0150) // $llx=0.3470 $lly=0.0150 $urx=0.3670 $ury=0.0150 $lvl=15
*|S (VSS:16 0.0210 0.0000) // $llx=0.0150 $lly=-0.0060 $urx=0.0270 $ury=0.0060 $lvl=9
*|S (VSS:17 0.0630 0.0000) // $llx=0.0570 $lly=-0.0060 $urx=0.0690 $ury=0.0060 $lvl=9
*|S (VSS:18 0.0630 0.0000) // $llx=0.0570 $lly=-0.0060 $urx=0.0690 $ury=0.0060 $lvl=14
*|S (VSS:19 0.1050 0.0000) // $llx=0.0990 $lly=-0.0060 $urx=0.1110 $ury=0.0060 $lvl=9
*|S (VSS:20 0.1470 0.0000) // $llx=0.1410 $lly=-0.0060 $urx=0.1530 $ury=0.0060 $lvl=9
*|S (VSS:21 0.1470 0.0000) // $llx=0.1410 $lly=-0.0060 $urx=0.1530 $ury=0.0060 $lvl=14
*|S (VSS:22 0.1890 0.0000) // $llx=0.1830 $lly=-0.0060 $urx=0.1950 $ury=0.0060 $lvl=9
*|S (VSS:23 0.2310 0.0000) // $llx=0.2250 $lly=-0.0060 $urx=0.2370 $ury=0.0060 $lvl=9
*|S (VSS:24 0.2310 0.0000) // $llx=0.2250 $lly=-0.0060 $urx=0.2370 $ury=0.0060 $lvl=14
*|S (VSS:25 0.2730 0.0000) // $llx=0.2670 $lly=-0.0060 $urx=0.2790 $ury=0.0060 $lvl=9
*|S (VSS:26 0.3150 0.0000) // $llx=0.3090 $lly=-0.0060 $urx=0.3210 $ury=0.0060 $lvl=9
*|S (VSS:27 0.3150 0.0000) // $llx=0.3090 $lly=-0.0060 $urx=0.3210 $ury=0.0060 $lvl=14
*|S (VSS:28 0.3570 0.0000) // $llx=0.3510 $lly=-0.0060 $urx=0.3630 $ury=0.0060 $lvl=9
*|S (VSS:29 0.3570 0.0000) // $llx=0.3470 $lly=-0.0060 $urx=0.3670 $ury=0.0060 $lvl=13
*|S (VSS:30 0.0210 0.0450) // $llx=0.0110 $lly=0.0450 $urx=0.0310 $ury=0.0450 $lvl=15
*|S (VSS:31 0.1050 0.0450) // $llx=0.0950 $lly=0.0450 $urx=0.1150 $ury=0.0450 $lvl=15
*|S (VSS:32 0.1890 0.0450) // $llx=0.1790 $lly=0.0450 $urx=0.1990 $ury=0.0450 $lvl=15
*|S (VSS:33 0.2730 0.0450) // $llx=0.2630 $lly=0.0450 $urx=0.2830 $ury=0.0450 $lvl=15
*|S (VSS:34 0.3570 0.0450) // $llx=0.3470 $lly=0.0450 $urx=0.3670 $ury=0.0450 $lvl=15
*|S (VSS:35 -0.0090 0.0000) // $llx=-0.0090 $lly=-0.0060 $urx=-0.0090 $ury=0.0060 $lvl=9
*|S (VSS:36 0.2730 0.0000) // $llx=0.2630 $lly=-0.0060 $urx=0.2830 $ury=0.0060 $lvl=14
*|S (VSS:37 0.1890 0.0000) // $llx=0.1790 $lly=-0.0060 $urx=0.1990 $ury=0.0060 $lvl=14
*|S (VSS:38 0.1050 0.0000) // $llx=0.0950 $lly=-0.0060 $urx=0.1150 $ury=0.0060 $lvl=14
*|S (VSS:39 0.0210 0.0000) // $llx=0.0110 $lly=-0.0060 $urx=0.0310 $ury=0.0060 $lvl=14
*|S (VSS:40 -0.0090 0.0000) // $llx=-0.0090 $lly=-0.0060 $urx=-0.0090 $ury=0.0060 $lvl=14
*|S (VSS:41 0.3870 0.0000) // $llx=0.3870 $lly=-0.0060 $urx=0.3870 $ury=0.0060 $lvl=14
*|S (VSS:42 0.0210 0.0300) // $llx=0.0110 $lly=0.0300 $urx=0.0310 $ury=0.0300 $lvl=15
*|S (VSS:43 0.1050 0.0300) // $llx=0.0950 $lly=0.0300 $urx=0.1150 $ury=0.0300 $lvl=15
*|S (VSS:44 0.1890 0.0300) // $llx=0.1790 $lly=0.0300 $urx=0.1990 $ury=0.0300 $lvl=15
*|S (VSS:45 0.2730 0.0300) // $llx=0.2630 $lly=0.0300 $urx=0.2830 $ury=0.0300 $lvl=15
*|S (VSS:46 0.3570 0.0300) // $llx=0.3470 $lly=0.0300 $urx=0.3670 $ury=0.0300 $lvl=15
*|S (VSS:47 0.3870 0.0000) // $llx=0.3870 $lly=-0.0060 $urx=0.3870 $ury=0.0060 $lvl=9
Cg1_1 MM0:BULK 0 1.31849e-17
Cg1_2 VSS:11 0 2.656e-19
Cg1_3 VSS:12 0 2.73586e-19
Cg1_4 VSS:13 0 2.656e-19
Cg1_5 VSS:14 0 2.73586e-19
Cg1_6 VSS:15 0 1.78742e-19
Cg1_7 VSS:29 0 3.85743e-18
Cg1_8 VSS:30 0 5.17687e-19
Cg1_9 VSS:31 0 6.21225e-19
Cg1_10 VSS:32 0 6.21225e-19
Cg1_11 VSS:33 0 6.21225e-19
Cg1_12 VSS:34 0 5.17687e-19
Cg1_13 VSS:35 0 1.03379e-17
Cg1_14 VSS:36 0 3.11388e-19
Cg1_15 VSS:37 0 2.95482e-19
Cg1_16 VSS:38 0 3.1868e-19
Cg1_17 VSS:39 0 6.02945e-19
R1_1 VSS VSS:23 7.29167 $l=0.0210 $w=0.0120 $lvl=9
R1_2 VSS VSS:22 7.29167 $l=0.0210 $w=0.0120 $lvl=9
R1_3 MM9:SRC VSS:34 2.0 $l=0.0150 $w=0.0075 $lvl=16
R1_4 MM9:SRC VSS:15 2.0 $l=0.0150 $w=0.0075 $lvl=16
R1_5 MM9:SRC VSS:46 1.0 $l=0.0150 $w=0.0150 $lvl=16
R1_6 MM7:SRC VSS:33 2.0 $l=0.0150 $w=0.0075 $lvl=16
R1_7 MM7:SRC VSS:14 2.0 $l=0.0150 $w=0.0075 $lvl=16
R1_8 MM7:SRC VSS:45 1.0 $l=0.0150 $w=0.0150 $lvl=16
R1_9 MM4:SRC VSS:33 2.0 $l=0.0150 $w=0.0075 $lvl=16
R1_10 MM4:SRC VSS:14 2.0 $l=0.0150 $w=0.0075 $lvl=16
R1_11 MM4:SRC VSS:45 1.0 $l=0.0150 $w=0.0150 $lvl=16
R1_12 MM3:SRC VSS:32 2.0 $l=0.0150 $w=0.0075 $lvl=16
R1_13 MM3:SRC VSS:13 2.0 $l=0.0150 $w=0.0075 $lvl=16
R1_14 MM3:SRC VSS:44 1.0 $l=0.0150 $w=0.0150 $lvl=16
R1_15 MM15:SRC VSS:32 2.0 $l=0.0150 $w=0.0075 $lvl=16
R1_16 MM15:SRC VSS:13 2.0 $l=0.0150 $w=0.0075 $lvl=16
R1_17 MM15:SRC VSS:44 1.0 $l=0.0150 $w=0.0150 $lvl=16
R1_18 MM12:SRC VSS:31 2.0 $l=0.0150 $w=0.0075 $lvl=16
R1_19 MM12:SRC VSS:12 2.0 $l=0.0150 $w=0.0075 $lvl=16
R1_20 MM12:SRC VSS:43 1.0 $l=0.0150 $w=0.0150 $lvl=16
R1_21 MM11:SRC VSS:31 2.0 $l=0.0150 $w=0.0075 $lvl=16
R1_22 MM11:SRC VSS:12 2.0 $l=0.0150 $w=0.0075 $lvl=16
R1_23 MM11:SRC VSS:43 1.0 $l=0.0150 $w=0.0150 $lvl=16
R1_24 MM0:SRC VSS:30 2.0 $l=0.0150 $w=0.0075 $lvl=16
R1_25 MM0:SRC VSS:11 2.0 $l=0.0150 $w=0.0075 $lvl=16
R1_26 MM0:SRC VSS:42 1.0 $l=0.0150 $w=0.0150 $lvl=16
R1_27 VSS:11 VSS:42 2.73284 $l=0.0150 $w=0.0225 $lvl=16
R1_28 VSS:11 VSS:39 8.89907 $l=0.0150 $w=0.0200 $lvl=13
R1_29 VSS:12 VSS:43 1.87763 $l=0.0150 $w=0.0250 $lvl=16
R1_30 VSS:12 VSS:38 8.89907 $l=0.0150 $w=0.0200 $lvl=13
R1_31 VSS:13 VSS:44 1.87763 $l=0.0150 $w=0.0250 $lvl=16
R1_32 VSS:13 VSS:37 8.89907 $l=0.0150 $w=0.0200 $lvl=13
R1_33 VSS:14 VSS:45 1.87763 $l=0.0150 $w=0.0250 $lvl=16
R1_34 VSS:14 VSS:36 8.89907 $l=0.0150 $w=0.0200 $lvl=13
R1_35 VSS:15 VSS:46 2.73284 $l=0.0150 $w=0.0225 $lvl=16
R1_36 VSS:15 VSS:29 8.89907 $l=0.0150 $w=0.0200 $lvl=13
R1_37 VSS:16 VSS:35 10.4167 $l=0.0300 $w=0.0120 $lvl=9
R1_38 VSS:16 VSS:17 14.5833 $l=0.0420 $w=0.0120 $lvl=9
R1_39 VSS:16 VSS:39 31.764 $a=0.00028800 $lvl=31
R1_40 VSS:17 VSS:18 63.5281 $a=0.00014400 $lvl=30
R1_41 VSS:17 VSS:19 14.5833 $l=0.0420 $w=0.0120 $lvl=9
R1_42 VSS:18 VSS:39 50.1851 $l=0.0420 $w=0.0120 $lvl=14
R1_43 VSS:18 VSS:38 50.1851 $l=0.0420 $w=0.0120 $lvl=14
R1_44 VSS:19 VSS:20 14.5833 $l=0.0420 $w=0.0120 $lvl=9
R1_45 VSS:19 VSS:38 31.764 $a=0.00028800 $lvl=31
R1_46 VSS:20 VSS:21 63.5281 $a=0.00014400 $lvl=30
R1_47 VSS:20 VSS:22 14.5833 $l=0.0420 $w=0.0120 $lvl=9
R1_48 VSS:21 VSS:38 50.1851 $l=0.0420 $w=0.0120 $lvl=14
R1_49 VSS:21 VSS:37 50.1851 $l=0.0420 $w=0.0120 $lvl=14
R1_50 VSS:22 VSS:37 31.764 $a=0.00028800 $lvl=31
R1_51 VSS:23 VSS:24 63.5281 $a=0.00014400 $lvl=30
R1_52 VSS:23 VSS:25 14.5833 $l=0.0420 $w=0.0120 $lvl=9
R1_53 VSS:24 VSS:37 50.1851 $l=0.0420 $w=0.0120 $lvl=14
R1_54 VSS:24 VSS:36 50.1851 $l=0.0420 $w=0.0120 $lvl=14
R1_55 VSS:25 VSS:26 14.5833 $l=0.0420 $w=0.0120 $lvl=9
R1_56 VSS:25 VSS:36 31.764 $a=0.00028800 $lvl=31
R1_57 VSS:26 VSS:27 63.5281 $a=0.00014400 $lvl=30
R1_58 VSS:26 VSS:28 14.5833 $l=0.0420 $w=0.0120 $lvl=9
R1_59 VSS:27 VSS:36 50.1851 $l=0.0420 $w=0.0120 $lvl=14
R1_60 VSS:27 VSS:29 50.1851 $l=0.0420 $w=0.0120 $lvl=14
R1_61 VSS:28 VSS:29 31.764 $a=0.00028800 $lvl=31
R1_62 VSS:28 VSS:47 10.4167 $l=0.0300 $w=0.0120 $lvl=9
R1_63 VSS:29 VSS:41 34.3372 $l=0.0300 $w=0.0120 $lvl=14
R1_64 VSS:30 VSS:42 2.73284 $l=0.0150 $w=0.0225 $lvl=16
R1_65 VSS:31 VSS:43 1.87763 $l=0.0150 $w=0.0250 $lvl=16
R1_66 VSS:32 VSS:44 1.87763 $l=0.0150 $w=0.0250 $lvl=16
R1_67 VSS:33 VSS:45 1.87763 $l=0.0150 $w=0.0250 $lvl=16
R1_68 VSS:34 VSS:46 2.73284 $l=0.0150 $w=0.0225 $lvl=16
R1_69 VSS:39 VSS:40 34.3372 $l=0.0300 $w=0.0120 $lvl=14
R1_70 MM0:SRC MM0:BULK 0.01 $l=0.0060 $w=100.0000 $lvl=0

*|NET VDD 0.00011347PF
*|P (VDD B 0 0.2420 0.0700) // $llx=0.2410 $lly=0.0690 $urx=0.2430 $ury=0.0690 $lvl=19
*|P (VDD_1 B 0 0.2100 0.1200) // $llx=0.2090 $lly=0.1190 $urx=0.2110 $ury=0.1210 $lvl=33
*|I (MM6:BULK MM6 BULK B 0 0.2940 0.0900) // $llx=0.2940 $lly=0.0900 $urx=0.2940 $ury=0.0900 $lvl=19
*|I (MM6:SRC MM6 SRC B 0 0.2880 0.0900) // $llx=0.2880 $lly=0.0900 $urx=0.2880 $ury=0.0900 $lvl=17
*|I (MM5:BULK MM5 BULK B 0 0.2520 0.0900) // $llx=0.2520 $lly=0.0900 $urx=0.2520 $ury=0.0900 $lvl=19
*|I (MM5:SRC MM5 SRC B 0 0.2580 0.0900) // $llx=0.2580 $lly=0.0900 $urx=0.2580 $ury=0.0900 $lvl=17
*|I (MM2:BULK MM2 BULK B 0 0.2100 0.0900) // $llx=0.2100 $lly=0.0900 $urx=0.2100 $ury=0.0900 $lvl=19
*|I (MM2:SRC MM2 SRC B 0 0.2040 0.0900) // $llx=0.2040 $lly=0.0900 $urx=0.2040 $ury=0.0900 $lvl=17
*|I (MM14:BULK MM14 BULK B 0 0.1680 0.0900) // $llx=0.1680 $lly=0.0900 $urx=0.1680 $ury=0.0900 $lvl=19
*|I (MM14:SRC MM14 SRC B 0 0.1740 0.0900) // $llx=0.1740 $lly=0.0900 $urx=0.1740 $ury=0.0900 $lvl=17
*|I (MM13:BULK MM13 BULK B 0 0.1260 0.0900) // $llx=0.1260 $lly=0.0900 $urx=0.1260 $ury=0.0900 $lvl=19
*|I (MM13:SRC MM13 SRC B 0 0.1200 0.0900) // $llx=0.1200 $lly=0.0900 $urx=0.1200 $ury=0.0900 $lvl=17
*|I (MM10:BULK MM10 BULK B 0 0.0840 0.0900) // $llx=0.0840 $lly=0.0900 $urx=0.0840 $ury=0.0900 $lvl=19
*|I (MM10:SRC MM10 SRC B 0 0.0900 0.0900) // $llx=0.0900 $lly=0.0900 $urx=0.0900 $ury=0.0900 $lvl=17
*|I (MM1:BULK MM1 BULK B 0 0.0420 0.0900) // $llx=0.0420 $lly=0.0900 $urx=0.0420 $ury=0.0900 $lvl=19
*|I (MM1:SRC MM1 SRC B 0 0.0360 0.0900) // $llx=0.0360 $lly=0.0900 $urx=0.0360 $ury=0.0900 $lvl=17
*|I (MM8:BULK MM8 BULK B 0 0.3360 0.0900) // $llx=0.3360 $lly=0.0900 $urx=0.3360 $ury=0.0900 $lvl=19
*|I (MM8:SRC MM8 SRC B 0 0.3420 0.0900) // $llx=0.3420 $lly=0.0900 $urx=0.3420 $ury=0.0900 $lvl=17
*|S (VDD:18 0.0210 0.0750) // $llx=0.0110 $lly=0.0750 $urx=0.0310 $ury=0.0750 $lvl=15
*|S (VDD:19 0.1050 0.0750) // $llx=0.0950 $lly=0.0750 $urx=0.1150 $ury=0.0750 $lvl=15
*|S (VDD:20 0.1890 0.0750) // $llx=0.1790 $lly=0.0750 $urx=0.1990 $ury=0.0750 $lvl=15
*|S (VDD:21 0.2730 0.0750) // $llx=0.2630 $lly=0.0750 $urx=0.2830 $ury=0.0750 $lvl=15
*|S (VDD:22 0.3570 0.0750) // $llx=0.3470 $lly=0.0750 $urx=0.3670 $ury=0.0750 $lvl=15
*|S (VDD:23 0.0210 0.1200) // $llx=0.0150 $lly=0.1140 $urx=0.0270 $ury=0.1260 $lvl=9
*|S (VDD:24 0.0630 0.1200) // $llx=0.0570 $lly=0.1140 $urx=0.0690 $ury=0.1260 $lvl=9
*|S (VDD:25 0.0630 0.1200) // $llx=0.0570 $lly=0.1140 $urx=0.0690 $ury=0.1260 $lvl=14
*|S (VDD:26 0.1050 0.1200) // $llx=0.0990 $lly=0.1140 $urx=0.1110 $ury=0.1260 $lvl=9
*|S (VDD:27 0.1470 0.1200) // $llx=0.1410 $lly=0.1140 $urx=0.1530 $ury=0.1260 $lvl=9
*|S (VDD:28 0.1470 0.1200) // $llx=0.1410 $lly=0.1140 $urx=0.1530 $ury=0.1260 $lvl=14
*|S (VDD:29 0.1890 0.1200) // $llx=0.1830 $lly=0.1140 $urx=0.1950 $ury=0.1260 $lvl=9
*|S (VDD:30 0.2310 0.1200) // $llx=0.2250 $lly=0.1140 $urx=0.2370 $ury=0.1260 $lvl=9
*|S (VDD:31 0.2310 0.1200) // $llx=0.2250 $lly=0.1140 $urx=0.2370 $ury=0.1260 $lvl=14
*|S (VDD:32 0.2730 0.1200) // $llx=0.2670 $lly=0.1140 $urx=0.2790 $ury=0.1260 $lvl=9
*|S (VDD:33 0.3150 0.1200) // $llx=0.3090 $lly=0.1140 $urx=0.3210 $ury=0.1260 $lvl=9
*|S (VDD:34 0.3150 0.1200) // $llx=0.3090 $lly=0.1140 $urx=0.3210 $ury=0.1260 $lvl=14
*|S (VDD:35 0.3570 0.1200) // $llx=0.3510 $lly=0.1140 $urx=0.3630 $ury=0.1260 $lvl=9
*|S (VDD:36 0.3570 0.1200) // $llx=0.3470 $lly=0.1140 $urx=0.3670 $ury=0.1260 $lvl=13
*|S (VDD:37 0.0360 0.0900) // $llx=0.0360 $lly=0.0600 $urx=0.0360 $ury=0.1200 $lvl=18
*|S (VDD:38 0.0210 0.1050) // $llx=0.0110 $lly=0.1050 $urx=0.0310 $ury=0.1050 $lvl=15
*|S (VDD:39 0.0055 0.0900) // $llx=0.0000 $lly=0.0600 $urx=0.0110 $ury=0.1200 $lvl=18
*|S (VDD:40 0.0780 0.0900) // $llx=0.0780 $lly=0.0600 $urx=0.0780 $ury=0.1200 $lvl=18
*|S (VDD:41 0.0480 0.0600) // $llx=0.0480 $lly=0.0600 $urx=0.0480 $ury=0.1200 $lvl=19
*|S (VDD:42 0.1200 0.0900) // $llx=0.1200 $lly=0.0600 $urx=0.1200 $ury=0.1200 $lvl=18
*|S (VDD:43 0.0900 0.0600) // $llx=0.0900 $lly=0.0600 $urx=0.0900 $ury=0.1200 $lvl=19
*|S (VDD:44 0.1050 0.1050) // $llx=0.0950 $lly=0.1050 $urx=0.1150 $ury=0.1050 $lvl=15
*|S (VDD:45 0.1620 0.0900) // $llx=0.1620 $lly=0.0600 $urx=0.1620 $ury=0.1200 $lvl=18
*|S (VDD:46 0.1320 0.0600) // $llx=0.1320 $lly=0.0600 $urx=0.1320 $ury=0.1200 $lvl=19
*|S (VDD:47 0.2040 0.0900) // $llx=0.2040 $lly=0.0600 $urx=0.2040 $ury=0.1200 $lvl=18
*|S (VDD:48 0.1740 0.0600) // $llx=0.1740 $lly=0.0600 $urx=0.1740 $ury=0.1200 $lvl=19
*|S (VDD:49 0.1890 0.1050) // $llx=0.1790 $lly=0.1050 $urx=0.1990 $ury=0.1050 $lvl=15
*|S (VDD:50 0.2880 0.0900) // $llx=0.2880 $lly=0.0600 $urx=0.2880 $ury=0.1200 $lvl=18
*|S (VDD:51 0.2580 0.0600) // $llx=0.2580 $lly=0.0600 $urx=0.2580 $ury=0.1200 $lvl=19
*|S (VDD:52 0.2730 0.1050) // $llx=0.2630 $lly=0.1050 $urx=0.2830 $ury=0.1050 $lvl=15
*|S (VDD:53 0.3000 0.0900) // $llx=0.3000 $lly=0.0600 $urx=0.3000 $ury=0.1200 $lvl=18
*|S (VDD:54 0.3670 0.0900) // $llx=0.3670 $lly=0.0600 $urx=0.3780 $ury=0.1200 $lvl=18
*|S (VDD:55 0.3570 0.1050) // $llx=0.3470 $lly=0.1050 $urx=0.3670 $ury=0.1050 $lvl=15
*|S (VDD:56 -0.0090 0.1200) // $llx=-0.0090 $lly=0.1140 $urx=-0.0090 $ury=0.1260 $lvl=9
*|S (VDD:57 0.2730 0.1200) // $llx=0.2630 $lly=0.1140 $urx=0.2830 $ury=0.1260 $lvl=14
*|S (VDD:58 0.1890 0.1200) // $llx=0.1790 $lly=0.1140 $urx=0.1990 $ury=0.1260 $lvl=14
*|S (VDD:59 0.1050 0.1200) // $llx=0.0950 $lly=0.1140 $urx=0.1150 $ury=0.1260 $lvl=14
*|S (VDD:60 0.0210 0.1200) // $llx=0.0110 $lly=0.1140 $urx=0.0310 $ury=0.1260 $lvl=14
*|S (VDD:61 -0.0090 0.1200) // $llx=-0.0090 $lly=0.1140 $urx=-0.0090 $ury=0.1260 $lvl=14
*|S (VDD:62 0.3870 0.1200) // $llx=0.3870 $lly=0.1140 $urx=0.3870 $ury=0.1260 $lvl=14
*|S (VDD:63 0.0210 0.0900) // $llx=0.0110 $lly=0.0900 $urx=0.0310 $ury=0.0900 $lvl=15
*|S (VDD:64 0.1050 0.0900) // $llx=0.0950 $lly=0.0900 $urx=0.1150 $ury=0.0900 $lvl=15
*|S (VDD:65 0.1890 0.0900) // $llx=0.1790 $lly=0.0900 $urx=0.1990 $ury=0.0900 $lvl=15
*|S (VDD:66 0.2730 0.0900) // $llx=0.2630 $lly=0.0900 $urx=0.2830 $ury=0.0900 $lvl=15
*|S (VDD:67 0.3570 0.0900) // $llx=0.3470 $lly=0.0900 $urx=0.3670 $ury=0.0900 $lvl=15
*|S (VDD:68 0.3870 0.1200) // $llx=0.3870 $lly=0.1140 $urx=0.3870 $ury=0.1260 $lvl=9
C2_1 VDD MM0:BULK 3.67416e-21
C2_2 VDD:18 MM0:BULK 8.02965e-19
C2_3 VDD:19 MM0:BULK 8.02594e-19
C2_4 VDD:20 MM0:BULK 8.02965e-19
C2_5 VDD:21 MM0:BULK 8.02594e-19
C2_6 VDD:41 MM0:BULK 6.76759e-22
C2_7 VDD:43 MM0:BULK 9.3848e-22
C2_8 VDD:46 MM0:BULK 1.2528e-21
C2_9 VDD:48 MM0:BULK 1.83467e-21
C2_10 VDD:51 MM0:BULK 7.57481e-21
C2_11 VDD:53 MM0:BULK 6.78086e-20
C2_12 VDD:56 MM0:BULK 2.34514e-18
C2_13 VDD:57 MM0:BULK 1.31876e-18
C2_14 VDD:58 MM0:BULK 1.31846e-18
C2_15 VDD:59 MM0:BULK 1.31876e-18
C2_16 VDD:60 MM0:BULK 1.31846e-18
C2_17 VDD:36 VSS:29 3.31165e-20
C2_18 VDD:39 VSS:29 1.12021e-19
C2_19 VDD:56 VSS:29 7.10305e-20
C2_20 VDD:60 VSS:29 6.86412e-21
C2_21 VDD:36 VSS:35 3.37305e-20
C2_22 VDD:56 VSS:35 7.49292e-19
Cg2_23 VDD 0 2.19788e-18
Cg2_24 MM8:BULK 0 2.79703e-18
Cg2_25 VDD:18 0 9.19208e-19
Cg2_26 VDD:19 0 2.73586e-19
Cg2_27 VDD:20 0 2.656e-19
Cg2_28 VDD:21 0 2.73586e-19
Cg2_29 VDD:22 0 1.78742e-19
Cg2_30 VDD:36 0 1.88044e-17
Cg2_31 VDD:37 0 2.58844e-19
Cg2_32 VDD:38 0 5.17687e-19
Cg2_33 VDD:39 0 1.72222e-18
Cg2_34 VDD:40 0 3.10612e-19
Cg2_35 VDD:41 0 1.9121e-18
Cg2_36 VDD:42 0 3.10612e-19
Cg2_37 VDD:43 0 1.91016e-18
Cg2_38 VDD:44 0 6.21225e-19
Cg2_39 VDD:45 0 3.10612e-19
Cg2_40 VDD:46 0 1.90694e-18
Cg2_41 VDD:47 0 3.10612e-19
Cg2_42 VDD:48 0 1.90011e-18
Cg2_43 VDD:49 0 6.21225e-19
Cg2_44 VDD:50 0 3.10612e-19
Cg2_45 VDD:51 0 1.85504e-18
Cg2_46 VDD:52 0 6.21225e-19
Cg2_47 VDD:53 0 1.79785e-18
Cg2_48 VDD:54 0 2.11459e-18
Cg2_49 VDD:55 0 5.17687e-19
Cg2_50 VDD:56 0 1.07686e-17
Cg2_51 VDD:57 0 7.51706e-19
Cg2_52 VDD:58 0 7.12652e-19
Cg2_53 VDD:59 0 7.53517e-19
Cg2_54 VDD:60 0 7.81873e-19
R2_1 VDD MM2:BULK 0.308333 $l=0.0320 $w=0.0600 $lvl=18
R2_2 VDD MM5:BULK 0.35 $l=0.0100 $w=0.0600 $lvl=18
R2_3 MM6:BULK VDD:53 0.1 $l=0.0060 $w=0.0600 $lvl=18
R2_4 MM6:BULK VDD:50 0.1 $l=0.0060 $w=0.0600 $lvl=18
R2_5 MM6:SRC VDD:52 2.0 $l=0.0150 $w=0.0075 $lvl=17
R2_6 MM6:SRC VDD:21 2.0 $l=0.0150 $w=0.0075 $lvl=17
R2_7 MM6:SRC VDD:66 1.0 $l=0.0150 $w=0.0150 $lvl=17
R2_8 MM5:BULK VDD:51 0.1 $l=0.0060 $w=0.0600 $lvl=18
R2_9 MM5:SRC VDD:52 2.0 $l=0.0150 $w=0.0075 $lvl=17
R2_10 MM5:SRC VDD:21 2.0 $l=0.0150 $w=0.0075 $lvl=17
R2_11 MM5:SRC VDD:66 1.0 $l=0.0150 $w=0.0150 $lvl=17
R2_12 MM2:BULK VDD:47 0.1 $l=0.0060 $w=0.0600 $lvl=18
R2_13 MM2:SRC VDD:49 2.0 $l=0.0150 $w=0.0075 $lvl=17
R2_14 MM2:SRC VDD:20 2.0 $l=0.0150 $w=0.0075 $lvl=17
R2_15 MM2:SRC VDD:65 1.0 $l=0.0150 $w=0.0150 $lvl=17
R2_16 MM14:BULK VDD:48 0.1 $l=0.0060 $w=0.0600 $lvl=18
R2_17 MM14:BULK VDD:45 0.1 $l=0.0060 $w=0.0600 $lvl=18
R2_18 MM14:SRC VDD:49 2.0 $l=0.0150 $w=0.0075 $lvl=17
R2_19 MM14:SRC VDD:20 2.0 $l=0.0150 $w=0.0075 $lvl=17
R2_20 MM14:SRC VDD:65 1.0 $l=0.0150 $w=0.0150 $lvl=17
R2_21 MM13:BULK VDD:46 0.1 $l=0.0060 $w=0.0600 $lvl=18
R2_22 MM13:BULK VDD:42 0.1 $l=0.0060 $w=0.0600 $lvl=18
R2_23 MM13:SRC VDD:44 2.0 $l=0.0150 $w=0.0075 $lvl=17
R2_24 MM13:SRC VDD:19 2.0 $l=0.0150 $w=0.0075 $lvl=17
R2_25 MM13:SRC VDD:64 1.0 $l=0.0150 $w=0.0150 $lvl=17
R2_26 MM10:BULK VDD:43 0.1 $l=0.0060 $w=0.0600 $lvl=18
R2_27 MM10:BULK VDD:40 0.1 $l=0.0060 $w=0.0600 $lvl=18
R2_28 MM10:SRC VDD:44 2.0 $l=0.0150 $w=0.0075 $lvl=17
R2_29 MM10:SRC VDD:19 2.0 $l=0.0150 $w=0.0075 $lvl=17
R2_30 MM10:SRC VDD:64 1.0 $l=0.0150 $w=0.0150 $lvl=17
R2_31 MM1:BULK VDD:41 0.1 $l=0.0060 $w=0.0600 $lvl=18
R2_32 MM1:BULK VDD:37 0.1 $l=0.0060 $w=0.0600 $lvl=18
R2_33 MM1:SRC VDD:38 2.0 $l=0.0150 $w=0.0075 $lvl=17
R2_34 MM1:SRC VDD:18 2.0 $l=0.0150 $w=0.0075 $lvl=17
R2_35 MM1:SRC VDD:63 1.0 $l=0.0150 $w=0.0150 $lvl=17
R2_36 MM8:BULK VDD:53 0.6 $l=0.0360 $w=0.0600 $lvl=18
R2_37 MM8:BULK VDD:54 0.545216 $l=0.0310 $w=0.0600 $lvl=18
R2_38 MM8:SRC VDD:55 2.0 $l=0.0150 $w=0.0075 $lvl=17
R2_39 MM8:SRC VDD:22 2.0 $l=0.0150 $w=0.0075 $lvl=17
R2_40 MM8:SRC VDD:67 1.0 $l=0.0150 $w=0.0150 $lvl=17
R2_41 VDD:18 VDD:63 2.73284 $l=0.0150 $w=0.0225 $lvl=17
R2_42 VDD:19 VDD:64 1.87763 $l=0.0150 $w=0.0250 $lvl=17
R2_43 VDD:20 VDD:65 1.87763 $l=0.0150 $w=0.0250 $lvl=17
R2_44 VDD:21 VDD:66 1.87763 $l=0.0150 $w=0.0250 $lvl=17
R2_45 VDD:22 VDD:67 2.73284 $l=0.0150 $w=0.0225 $lvl=17
R2_46 VDD:23 VDD:56 10.4167 $l=0.0300 $w=0.0120 $lvl=9
R2_47 VDD:23 VDD:24 14.5833 $l=0.0420 $w=0.0120 $lvl=9
R2_48 VDD:23 VDD:60 31.764 $a=0.00028800 $lvl=31
R2_49 VDD:24 VDD:25 63.5281 $a=0.00014400 $lvl=30
R2_50 VDD:24 VDD:26 14.5833 $l=0.0420 $w=0.0120 $lvl=9
R2_51 VDD:25 VDD:60 50.1851 $l=0.0420 $w=0.0120 $lvl=14
R2_52 VDD:25 VDD:59 50.1851 $l=0.0420 $w=0.0120 $lvl=14
R2_53 VDD:26 VDD:27 14.5833 $l=0.0420 $w=0.0120 $lvl=9
R2_54 VDD:26 VDD:59 31.764 $a=0.00028800 $lvl=31
R2_55 VDD:27 VDD:28 63.5281 $a=0.00014400 $lvl=30
R2_56 VDD:27 VDD:29 14.5833 $l=0.0420 $w=0.0120 $lvl=9
R2_57 VDD:28 VDD:59 50.1851 $l=0.0420 $w=0.0120 $lvl=14
R2_58 VDD:28 VDD:58 50.1851 $l=0.0420 $w=0.0120 $lvl=14
R2_59 VDD:29 VDD:58 31.764 $a=0.00028800 $lvl=31
R2_60 VDD:29 VDD_1 7.29167 $l=0.0210 $w=0.0120 $lvl=9
R2_61 VDD:30 VDD:31 63.5281 $a=0.00014400 $lvl=30
R2_62 VDD:30 VDD:32 14.5833 $l=0.0420 $w=0.0120 $lvl=9
R2_63 VDD:30 VDD_1 7.29167 $l=0.0210 $w=0.0120 $lvl=9
R2_64 VDD:31 VDD:58 50.1851 $l=0.0420 $w=0.0120 $lvl=14
R2_65 VDD:31 VDD:57 50.1851 $l=0.0420 $w=0.0120 $lvl=14
R2_66 VDD:32 VDD:33 14.5833 $l=0.0420 $w=0.0120 $lvl=9
R2_67 VDD:32 VDD:57 31.764 $a=0.00028800 $lvl=31
R2_68 VDD:33 VDD:34 63.5281 $a=0.00014400 $lvl=30
R2_69 VDD:33 VDD:35 14.5833 $l=0.0420 $w=0.0120 $lvl=9
R2_70 VDD:34 VDD:57 50.1851 $l=0.0420 $w=0.0120 $lvl=14
R2_71 VDD:34 VDD:36 50.1851 $l=0.0420 $w=0.0120 $lvl=14
R2_72 VDD:35 VDD:36 31.764 $a=0.00028800 $lvl=31
R2_73 VDD:35 VDD:68 10.4167 $l=0.0300 $w=0.0120 $lvl=9
R2_74 VDD:36 VDD:55 8.89907 $l=0.0150 $w=0.0200 $lvl=13
R2_75 VDD:36 VDD:62 34.3372 $l=0.0300 $w=0.0120 $lvl=14
R2_76 VDD:37 VDD:39 0.406667 $l=0.0305 $w=0.0750 $lvl=18
R2_77 VDD:38 VDD:63 2.73284 $l=0.0150 $w=0.0225 $lvl=17
R2_78 VDD:38 VDD:60 8.89907 $l=0.0150 $w=0.0200 $lvl=13
R2_79 VDD:40 VDD:41 0.5 $l=0.0300 $w=0.0600 $lvl=18
R2_80 VDD:42 VDD:43 0.5 $l=0.0300 $w=0.0600 $lvl=18
R2_81 VDD:44 VDD:64 1.87763 $l=0.0150 $w=0.0250 $lvl=17
R2_82 VDD:44 VDD:59 8.89907 $l=0.0150 $w=0.0200 $lvl=13
R2_83 VDD:45 VDD:46 0.5 $l=0.0300 $w=0.0600 $lvl=18
R2_84 VDD:47 VDD:48 0.5 $l=0.0300 $w=0.0600 $lvl=18
R2_85 VDD:49 VDD:65 1.87763 $l=0.0150 $w=0.0250 $lvl=17
R2_86 VDD:49 VDD:58 8.89907 $l=0.0150 $w=0.0200 $lvl=13
R2_87 VDD:50 VDD:51 0.5 $l=0.0300 $w=0.0600 $lvl=18
R2_88 VDD:52 VDD:66 1.87763 $l=0.0150 $w=0.0250 $lvl=17
R2_89 VDD:52 VDD:57 8.89907 $l=0.0150 $w=0.0200 $lvl=13
R2_90 VDD:55 VDD:67 2.73284 $l=0.0150 $w=0.0225 $lvl=17
R2_91 VDD:60 VDD:61 34.3372 $l=0.0300 $w=0.0120 $lvl=14
R2_92 MM6:SRC VDD:50 0.01 $l=0.0000 $w=100.0000 $lvl=0

*|NET A 3.96897e-05PF
*|P (A B 0 0.0210 0.0600) // $llx=0.0200 $lly=0.0590 $urx=0.0220 $ury=0.0610 $lvl=33
*|I (MM14:GATE MM14 GATE I 3.6e-19 0.1680 0.0900) // $llx=0.1680 $lly=0.0900 $urx=0.1680 $ury=0.0900 $lvl=12
*|I (MM13:GATE MM13 GATE I 3.6e-19 0.1260 0.0900) // $llx=0.1260 $lly=0.0900 $urx=0.1260 $ury=0.0900 $lvl=12
*|I (MM10:GATE MM10 GATE I 3.6e-19 0.0840 0.0900) // $llx=0.0840 $lly=0.0900 $urx=0.0840 $ury=0.0900 $lvl=12
*|I (MM1:GATE MM1 GATE I 3.6e-19 0.0420 0.0900) // $llx=0.0420 $lly=0.0900 $urx=0.0420 $ury=0.0900 $lvl=12
*|I (MM15:GATE MM15 GATE I 3.6e-19 0.1680 0.0300) // $llx=0.1680 $lly=0.0300 $urx=0.1680 $ury=0.0300 $lvl=11
*|I (MM12:GATE MM12 GATE I 3.6e-19 0.1260 0.0300) // $llx=0.1260 $lly=0.0300 $urx=0.1260 $ury=0.0300 $lvl=11
*|I (MM11:GATE MM11 GATE I 3.6e-19 0.0840 0.0300) // $llx=0.0840 $lly=0.0300 $urx=0.0840 $ury=0.0300 $lvl=11
*|I (MM0:GATE MM0 GATE I 3.6e-19 0.0420 0.0300) // $llx=0.0420 $lly=0.0300 $urx=0.0420 $ury=0.0300 $lvl=11
*|S (A:10 0.0420 0.0150) // $llx=0.0360 $lly=0.0150 $urx=0.0480 $ury=0.0150 $lvl=10
*|S (A:11 0.0420 0.0450) // $llx=0.0360 $lly=0.0450 $urx=0.0480 $ury=0.0450 $lvl=11
*|S (A:12 0.0420 0.0750) // $llx=0.0360 $lly=0.0750 $urx=0.0480 $ury=0.0750 $lvl=10
*|S (A:13 0.0420 0.1050) // $llx=0.0360 $lly=0.1050 $urx=0.0480 $ury=0.1050 $lvl=12
*|S (A:14 0.0420 0.1100) // $llx=0.0360 $lly=0.1100 $urx=0.0480 $ury=0.1100 $lvl=10
*|S (A:15 0.0840 0.0150) // $llx=0.0780 $lly=0.0150 $urx=0.0900 $ury=0.0150 $lvl=10
*|S (A:16 0.0840 0.0450) // $llx=0.0780 $lly=0.0450 $urx=0.0900 $ury=0.0450 $lvl=11
*|S (A:17 0.0840 0.0750) // $llx=0.0780 $lly=0.0750 $urx=0.0900 $ury=0.0750 $lvl=10
*|S (A:18 0.0840 0.1050) // $llx=0.0780 $lly=0.1050 $urx=0.0900 $ury=0.1050 $lvl=12
*|S (A:19 0.0840 0.1100) // $llx=0.0780 $lly=0.1100 $urx=0.0900 $ury=0.1100 $lvl=10
*|S (A:20 0.1260 0.0150) // $llx=0.1200 $lly=0.0150 $urx=0.1320 $ury=0.0150 $lvl=10
*|S (A:21 0.1260 0.0450) // $llx=0.1200 $lly=0.0450 $urx=0.1320 $ury=0.0450 $lvl=11
*|S (A:22 0.1260 0.0750) // $llx=0.1200 $lly=0.0750 $urx=0.1320 $ury=0.0750 $lvl=10
*|S (A:23 0.1260 0.1050) // $llx=0.1200 $lly=0.1050 $urx=0.1320 $ury=0.1050 $lvl=12
*|S (A:24 0.1260 0.1100) // $llx=0.1200 $lly=0.1100 $urx=0.1320 $ury=0.1100 $lvl=10
*|S (A:25 0.1680 0.0150) // $llx=0.1620 $lly=0.0150 $urx=0.1740 $ury=0.0150 $lvl=10
*|S (A:26 0.1680 0.0450) // $llx=0.1620 $lly=0.0450 $urx=0.1740 $ury=0.0450 $lvl=11
*|S (A:27 0.1680 0.0750) // $llx=0.1620 $lly=0.0750 $urx=0.1740 $ury=0.0750 $lvl=10
*|S (A:28 0.1680 0.1050) // $llx=0.1620 $lly=0.1050 $urx=0.1740 $ury=0.1050 $lvl=12
*|S (A:29 0.1680 0.1100) // $llx=0.1620 $lly=0.1100 $urx=0.1740 $ury=0.1100 $lvl=10
*|S (A:30 0.1260 0.0600) // $llx=0.1200 $lly=0.0540 $urx=0.1320 $ury=0.0660 $lvl=10
*|S (A:31 0.0420 0.0600) // $llx=0.0360 $lly=0.0540 $urx=0.0480 $ury=0.0660 $lvl=9
*|S (A:32 0.0420 0.0600) // $llx=0.0360 $lly=0.0540 $urx=0.0480 $ury=0.0660 $lvl=10
*|S (A:33 0.0840 0.0600) // $llx=0.0780 $lly=0.0540 $urx=0.0900 $ury=0.0660 $lvl=9
*|S (A:34 0.0840 0.0600) // $llx=0.0780 $lly=0.0540 $urx=0.0900 $ury=0.0660 $lvl=10
*|S (A:35 0.1470 0.0600) // $llx=0.1410 $lly=0.0540 $urx=0.1530 $ury=0.0660 $lvl=9
*|S (A:36 0.1470 0.0600) // $llx=0.1410 $lly=0.0540 $urx=0.1530 $ury=0.0660 $lvl=14
*|S (A:37 0.1530 0.0600) // $llx=0.1530 $lly=0.0540 $urx=0.1530 $ury=0.0660 $lvl=9
*|S (A:38 0.0210 0.1020) // $llx=0.0150 $lly=0.1020 $urx=0.0270 $ury=0.1020 $lvl=9
*|S (A:39 0.0420 0.0100) // $llx=0.0360 $lly=0.0100 $urx=0.0480 $ury=0.0100 $lvl=10
*|S (A:40 0.0840 0.0100) // $llx=0.0780 $lly=0.0100 $urx=0.0900 $ury=0.0100 $lvl=10
*|S (A:41 0.1260 0.0100) // $llx=0.1200 $lly=0.0100 $urx=0.1320 $ury=0.0100 $lvl=10
*|S (A:42 0.1680 0.0100) // $llx=0.1620 $lly=0.0100 $urx=0.1740 $ury=0.0100 $lvl=10
*|S (A:43 0.1680 0.0600) // $llx=0.1620 $lly=0.0540 $urx=0.1740 $ury=0.0660 $lvl=10
*|S (A:44 0.0210 0.0180) // $llx=0.0150 $lly=0.0180 $urx=0.0270 $ury=0.0180 $lvl=9
C3_1 A MM0:BULK 4.25986e-19
C3_2 A:37 MM0:BULK 6.80666e-19
C3_3 A:38 MM0:BULK 2.8413e-19
C3_4 A VSS:11 2.41857e-19
C3_5 A VSS:29 1.00765e-19
C3_6 A:12 VSS:29 4.41316e-20
C3_7 A:17 VSS:29 4.30793e-20
C3_8 A:22 VSS:29 4.30793e-20
C3_9 A:27 VSS:29 4.30793e-20
C3_10 A:30 VSS:29 7.57903e-21
C3_11 A:32 VSS:29 3.78951e-21
C3_12 A:34 VSS:29 3.78951e-21
C3_13 A:37 VSS:29 2.22565e-20
C3_14 A VSS:30 4.3527e-20
C3_15 A VSS:35 1.98391e-18
C3_16 A:37 VSS:35 1.19933e-18
C3_17 A VSS:39 3.44814e-19
C3_18 A:38 VDD:18 1.0966e-19
C3_19 A:12 VDD:36 5.88554e-20
C3_20 A:13 VDD:36 2.29783e-19
C3_21 A:14 VDD:36 1.49359e-19
C3_22 A:17 VDD:36 5.90745e-20
C3_23 A:18 VDD:36 2.25945e-19
C3_24 A:19 VDD:36 1.49656e-19
C3_25 A:22 VDD:36 5.90745e-20
C3_26 A:23 VDD:36 2.25945e-19
C3_27 A:24 VDD:36 1.49656e-19
C3_28 A:27 VDD:36 5.97128e-20
C3_29 A:28 VDD:36 2.25945e-19
C3_30 A:29 VDD:36 1.49656e-19
C3_31 A:30 VDD:36 5.11082e-19
C3_32 A:32 VDD:36 2.65758e-19
C3_33 A:34 VDD:36 2.53314e-19
C3_34 A:37 VDD:37 3.46102e-20
C3_35 A:38 VDD:37 2.79827e-20
C3_36 A:32 VDD:38 2.10425e-19
C3_37 A:38 VDD:38 1.13978e-19
C3_38 A:38 VDD:39 3.97424e-20
C3_39 A:37 VDD:40 8.9508e-20
C3_40 A:37 VDD:41 1.02383e-19
C3_41 A:37 VDD:42 8.90499e-20
C3_42 A:37 VDD:43 8.41569e-21
C3_43 A:30 VDD:44 2.05904e-19
C3_44 A:37 VDD:45 9.84383e-20
C3_45 A:30 VDD:46 1.49311e-20
C3_46 A:37 VDD:46 8.41569e-21
C3_47 A:12 VDD:56 6.24155e-21
C3_48 A:13 VDD:56 4.72749e-20
C3_49 A:14 VDD:56 4.21667e-20
C3_50 A:18 VDD:56 3.83923e-20
C3_51 A:19 VDD:56 4.29081e-20
C3_52 A:23 VDD:56 3.83923e-20
C3_53 A:24 VDD:56 4.29081e-20
C3_54 A:28 VDD:56 3.83923e-20
C3_55 A:29 VDD:56 4.29081e-20
C3_56 A:32 VDD:56 1.86733e-20
C3_57 A:37 VDD:56 1.19933e-18
C3_58 A:38 VDD:56 1.98391e-18
C3_59 A:38 VDD:60 3.44814e-19
Cg3_60 A 0 1.71105e-18
Cg3_61 A:10 0 6.02191e-20
Cg3_62 A:11 0 2.43715e-19
Cg3_63 A:12 0 2.6987e-19
Cg3_64 A:13 0 3.75304e-19
Cg3_65 A:14 0 1.72208e-19
Cg3_66 A:15 0 6.11935e-20
Cg3_67 A:16 0 2.43715e-19
Cg3_68 A:17 0 2.70364e-19
Cg3_69 A:18 0 3.68393e-19
Cg3_70 A:19 0 1.74064e-19
Cg3_71 A:20 0 6.11935e-20
Cg3_72 A:21 0 2.43715e-19
Cg3_73 A:22 0 2.70364e-19
Cg3_74 A:23 0 3.68393e-19
Cg3_75 A:24 0 1.74064e-19
Cg3_76 A:25 0 6.11935e-20
Cg3_77 A:26 0 2.43715e-19
Cg3_78 A:27 0 2.71935e-19
Cg3_79 A:28 0 3.68393e-19
Cg3_80 A:29 0 1.74064e-19
Cg3_81 A:30 0 2.76666e-19
Cg3_82 A:32 0 7.35588e-20
Cg3_83 A:34 0 7.35727e-20
Cg3_84 A:37 0 2.11113e-18
Cg3_85 A:38 0 1.86758e-18
R3_1 A A:31 7.29167 $l=0.0210 $w=0.0120 $lvl=9
R3_2 A A:38 14.5833 $l=0.0420 $w=0.0120 $lvl=9
R3_3 A A:44 13.5417 $l=0.0420 $w=0.0120 $lvl=9
R3_4 MM14:GATE A:28 6.57895 $l=0.0150 $w=0.0120 $lvl=12
R3_5 MM14:GATE A:27 6.57895 $l=0.0150 $w=0.0120 $lvl=12
R3_6 MM13:GATE A:23 6.57895 $l=0.0150 $w=0.0120 $lvl=12
R3_7 MM13:GATE A:22 6.57895 $l=0.0150 $w=0.0120 $lvl=12
R3_8 MM10:GATE A:18 6.57895 $l=0.0150 $w=0.0120 $lvl=12