*
*|DSPF 1.3
*|DESIGN BUFx6
*|DATE "Tue Oct 15 21:09:55 2024"
*|VENDOR "Synopsys"
*|PROGRAM "StarRC"
*|VERSION "V-2023.12-SP5"
*|DIVIDER .
*|DELIMITER :
**FORMAT SPF
*

** COMMENTS

** OPERATING_TEMPERATURE 25
** GLOBAL_TEMPERATURE 25
** 
** TCAD_GRD_FILE /home/gtcad/ctsai314/ITF_Modification/0_reference/3nm_FF_noBPR.nxtgrd
**   TCAD_TIME_STAMP Tue Sep 3 21:56:12 2024
**   TCADGRD_VERSION 89

.SUBCKT BUFx6 A VDD VSS Y

*|GROUND_NET 0

*LAYER_MAP

*0 SUBSTRATE
*1 m9    ITF=M9
*2 m8    ITF=M8
*3 m7    ITF=M7
*4 m6    ITF=M6
*5 m5    ITF=M5
*6 m4    ITF=M4
*7 m3    ITF=M3
*8 m2    ITF=M2
*9 m1    ITF=M1
*10 fpoly    ITF=Gate
*11 ngate    ITF=Gate
*12 pgate    ITF=Gate
*13 lisd    ITF=LISD
*14 lig    ITF=LIG
*15 sdt    ITF=SDT
*16 nsd    ITF=Active
*17 psd    ITF=Active
*18 pselect    ITF=Active
*19 well    ITF=Active
*20 sub    ITF=Active
*21 nselect    ITF=Active
*22 v8    ITF=V8
*23 v7    ITF=V7
*24 v6    ITF=V6
*25 v5    ITF=V5
*26 v4    ITF=V4
*27 v3    ITF=V3
*28 v2    ITF=V2
*29 v1    ITF=V1
*30 v0lig    ITF=V0LIG
*31 v0lisd    ITF=V0LISD
*32 well_pin    ITF=Active
*33 M1_pin    ITF=M1
*34 M2_pin    ITF=M2
*35 M3_pin    ITF=M3
*36 M4_pin    ITF=M4
*37 M5_pin    ITF=M5
*38 M6_pin    ITF=M6
*39 M7_pin    ITF=M7
*40 M8_pin    ITF=M8
*41 M9_pin    ITF=M9

*|NET A 5.53046e-05PF
*|P (A B 0 0.0210 0.0600) // $llx=0.0200 $lly=0.0590 $urx=0.0220 $ury=0.0610 $lvl=33
*|I (MM16:GATE MM16 GATE I 3.6e-19 0.1260 0.0300) // $llx=0.1260 $lly=0.0300 $urx=0.1260 $ury=0.0300 $lvl=11
*|I (MM15:GATE MM15 GATE I 3.6e-19 0.0840 0.0300) // $llx=0.0840 $lly=0.0300 $urx=0.0840 $ury=0.0300 $lvl=11
*|I (MM0:GATE MM0 GATE I 3.6e-19 0.0420 0.0300) // $llx=0.0420 $lly=0.0300 $urx=0.0420 $ury=0.0300 $lvl=11
*|I (MM22:GATE MM22 GATE I 3.6e-19 0.2520 0.0900) // $llx=0.2520 $lly=0.0900 $urx=0.2520 $ury=0.0900 $lvl=12
*|I (MM21:GATE MM21 GATE I 3.6e-19 0.2100 0.0900) // $llx=0.2100 $lly=0.0900 $urx=0.2100 $ury=0.0900 $lvl=12
*|I (MM18:GATE MM18 GATE I 3.6e-19 0.1680 0.0900) // $llx=0.1680 $lly=0.0900 $urx=0.1680 $ury=0.0900 $lvl=12
*|I (MM17:GATE MM17 GATE I 3.6e-19 0.1260 0.0900) // $llx=0.1260 $lly=0.0900 $urx=0.1260 $ury=0.0900 $lvl=12
*|I (MM14:GATE MM14 GATE I 3.6e-19 0.0840 0.0900) // $llx=0.0840 $lly=0.0900 $urx=0.0840 $ury=0.0900 $lvl=12
*|I (MM1:GATE MM1 GATE I 3.6e-19 0.0420 0.0900) // $llx=0.0420 $lly=0.0900 $urx=0.0420 $ury=0.0900 $lvl=12
*|I (MM23:GATE MM23 GATE I 3.6e-19 0.2520 0.0300) // $llx=0.2520 $lly=0.0300 $urx=0.2520 $ury=0.0300 $lvl=11
*|I (MM20:GATE MM20 GATE I 3.6e-19 0.2100 0.0300) // $llx=0.2100 $lly=0.0300 $urx=0.2100 $ury=0.0300 $lvl=11
*|I (MM19:GATE MM19 GATE I 3.6e-19 0.1680 0.0300) // $llx=0.1680 $lly=0.0300 $urx=0.1680 $ury=0.0300 $lvl=11
*|S (A:14 0.0420 0.0150) // $llx=0.0360 $lly=0.0150 $urx=0.0480 $ury=0.0150 $lvl=10
*|S (A:15 0.0420 0.0450) // $llx=0.0360 $lly=0.0450 $urx=0.0480 $ury=0.0450 $lvl=11
*|S (A:16 0.0420 0.0750) // $llx=0.0360 $lly=0.0750 $urx=0.0480 $ury=0.0750 $lvl=10
*|S (A:17 0.0420 0.1050) // $llx=0.0360 $lly=0.1050 $urx=0.0480 $ury=0.1050 $lvl=12
*|S (A:18 0.0420 0.1100) // $llx=0.0360 $lly=0.1100 $urx=0.0480 $ury=0.1100 $lvl=10
*|S (A:19 0.0840 0.0150) // $llx=0.0780 $lly=0.0150 $urx=0.0900 $ury=0.0150 $lvl=10
*|S (A:20 0.0840 0.0450) // $llx=0.0780 $lly=0.0450 $urx=0.0900 $ury=0.0450 $lvl=11
*|S (A:21 0.0840 0.0750) // $llx=0.0780 $lly=0.0750 $urx=0.0900 $ury=0.0750 $lvl=10
*|S (A:22 0.0840 0.1050) // $llx=0.0780 $lly=0.1050 $urx=0.0900 $ury=0.1050 $lvl=12
*|S (A:23 0.0840 0.1100) // $llx=0.0780 $lly=0.1100 $urx=0.0900 $ury=0.1100 $lvl=10
*|S (A:24 0.1260 0.0150) // $llx=0.1200 $lly=0.0150 $urx=0.1320 $ury=0.0150 $lvl=10
*|S (A:25 0.1260 0.0450) // $llx=0.1200 $lly=0.0450 $urx=0.1320 $ury=0.0450 $lvl=11
*|S (A:26 0.1260 0.0750) // $llx=0.1200 $lly=0.0750 $urx=0.1320 $ury=0.0750 $lvl=10
*|S (A:27 0.1260 0.1050) // $llx=0.1200 $lly=0.1050 $urx=0.1320 $ury=0.1050 $lvl=12
*|S (A:28 0.1260 0.1100) // $llx=0.1200 $lly=0.1100 $urx=0.1320 $ury=0.1100 $lvl=10
*|S (A:29 0.1680 0.0150) // $llx=0.1620 $lly=0.0150 $urx=0.1740 $ury=0.0150 $lvl=10
*|S (A:30 0.1680 0.0450) // $llx=0.1620 $lly=0.0450 $urx=0.1740 $ury=0.0450 $lvl=11
*|S (A:31 0.1680 0.0750) // $llx=0.1620 $lly=0.0750 $urx=0.1740 $ury=0.0750 $lvl=10
*|S (A:32 0.1680 0.1050) // $llx=0.1620 $lly=0.1050 $urx=0.1740 $ury=0.1050 $lvl=12
*|S (A:33 0.1680 0.1100) // $llx=0.1620 $lly=0.1100 $urx=0.1740 $ury=0.1100 $lvl=10
*|S (A:34 0.2100 0.0150) // $llx=0.2040 $lly=0.0150 $urx=0.2160 $ury=0.0150 $lvl=10
*|S (A:35 0.2100 0.0450) // $llx=0.2040 $lly=0.0450 $urx=0.2160 $ury=0.0450 $lvl=11
*|S (A:36 0.2100 0.0750) // $llx=0.2040 $lly=0.0750 $urx=0.2160 $ury=0.0750 $lvl=10
*|S (A:37 0.2100 0.1050) // $llx=0.2040 $lly=0.1050 $urx=0.2160 $ury=0.1050 $lvl=12
*|S (A:38 0.2100 0.1100) // $llx=0.2040 $lly=0.1100 $urx=0.2160 $ury=0.1100 $lvl=10
*|S (A:39 0.2520 0.0150) // $llx=0.2460 $lly=0.0150 $urx=0.2580 $ury=0.0150 $lvl=10
*|S (A:40 0.2520 0.0450) // $llx=0.2460 $lly=0.0450 $urx=0.2580 $ury=0.0450 $lvl=11
*|S (A:41 0.2520 0.0750) // $llx=0.2460 $lly=0.0750 $urx=0.2580 $ury=0.0750 $lvl=10
*|S (A:42 0.2520 0.1050) // $llx=0.2460 $lly=0.1050 $urx=0.2580 $ury=0.1050 $lvl=12
*|S (A:43 0.2520 0.1100) // $llx=0.2460 $lly=0.1100 $urx=0.2580 $ury=0.1100 $lvl=10
*|S (A:44 0.2100 0.0600) // $llx=0.2040 $lly=0.0540 $urx=0.2160 $ury=0.0660 $lvl=10
*|S (A:45 0.0420 0.0600) // $llx=0.0360 $lly=0.0540 $urx=0.0480 $ury=0.0660 $lvl=9
*|S (A:46 0.0420 0.0600) // $llx=0.0360 $lly=0.0540 $urx=0.0480 $ury=0.0660 $lvl=10
*|S (A:47 0.0840 0.0600) // $llx=0.0780 $lly=0.0540 $urx=0.0900 $ury=0.0660 $lvl=9
*|S (A:48 0.0840 0.0600) // $llx=0.0780 $lly=0.0540 $urx=0.0900 $ury=0.0660 $lvl=10
*|S (A:49 0.1260 0.0600) // $llx=0.1200 $lly=0.0540 $urx=0.1320 $ury=0.0660 $lvl=9
*|S (A:50 0.1260 0.0600) // $llx=0.1200 $lly=0.0540 $urx=0.1320 $ury=0.0660 $lvl=10
*|S (A:51 0.1680 0.0600) // $llx=0.1620 $lly=0.0540 $urx=0.1740 $ury=0.0660 $lvl=9
*|S (A:52 0.1680 0.0600) // $llx=0.1620 $lly=0.0540 $urx=0.1740 $ury=0.0660 $lvl=10
*|S (A:53 0.2310 0.0600) // $llx=0.2250 $lly=0.0540 $urx=0.2370 $ury=0.0660 $lvl=9
*|S (A:54 0.2310 0.0600) // $llx=0.2250 $lly=0.0540 $urx=0.2370 $ury=0.0660 $lvl=14
*|S (A:55 0.2370 0.0600) // $llx=0.2370 $lly=0.0540 $urx=0.2370 $ury=0.0660 $lvl=9
*|S (A:56 0.0210 0.1020) // $llx=0.0150 $lly=0.1020 $urx=0.0270 $ury=0.1020 $lvl=9
*|S (A:57 0.0420 0.0100) // $llx=0.0360 $lly=0.0100 $urx=0.0480 $ury=0.0100 $lvl=10
*|S (A:58 0.0840 0.0100) // $llx=0.0780 $lly=0.0100 $urx=0.0900 $ury=0.0100 $lvl=10
*|S (A:59 0.1260 0.0100) // $llx=0.1200 $lly=0.0100 $urx=0.1320 $ury=0.0100 $lvl=10
*|S (A:60 0.1680 0.0100) // $llx=0.1620 $lly=0.0100 $urx=0.1740 $ury=0.0100 $lvl=10
*|S (A:61 0.2100 0.0100) // $llx=0.2040 $lly=0.0100 $urx=0.2160 $ury=0.0100 $lvl=10
*|S (A:62 0.2520 0.0100) // $llx=0.2460 $lly=0.0100 $urx=0.2580 $ury=0.0100 $lvl=10
*|S (A:63 0.2520 0.0600) // $llx=0.2460 $lly=0.0540 $urx=0.2580 $ury=0.0660 $lvl=10
*|S (A:64 0.0210 0.0180) // $llx=0.0150 $lly=0.0180 $urx=0.0270 $ury=0.0180 $lvl=9
Cg1_1 A 0 1.74381e-18
Cg1_2 A:14 0 6.02191e-20
Cg1_3 A:15 0 2.43715e-19
Cg1_4 A:16 0 2.6987e-19
Cg1_5 A:17 0 3.75304e-19
Cg1_6 A:18 0 1.72208e-19
Cg1_7 A:19 0 6.11935e-20
Cg1_8 A:20 0 2.43715e-19
Cg1_9 A:21 0 2.70364e-19
Cg1_10 A:22 0 3.68393e-19
Cg1_11 A:23 0 1.74064e-19
Cg1_12 A:24 0 6.11935e-20
Cg1_13 A:25 0 2.43715e-19
Cg1_14 A:26 0 2.70364e-19
Cg1_15 A:27 0 3.68393e-19
Cg1_16 A:28 0 1.74064e-19
Cg1_17 A:29 0 6.11935e-20
Cg1_18 A:30 0 2.43715e-19
Cg1_19 A:31 0 2.70364e-19
Cg1_20 A:32 0 3.68393e-19
Cg1_21 A:33 0 1.74064e-19
Cg1_22 A:34 0 6.11935e-20
Cg1_23 A:35 0 2.43715e-19
Cg1_24 A:36 0 2.70364e-19
Cg1_25 A:37 0 3.68393e-19
Cg1_26 A:38 0 1.74064e-19
Cg1_27 A:39 0 6.11935e-20
Cg1_28 A:40 0 2.43715e-19
Cg1_29 A:41 0 2.71935e-19
Cg1_30 A:42 0 3.68393e-19
Cg1_31 A:43 0 1.74064e-19
Cg1_32 A:44 0 2.76666e-19
Cg1_33 A:46 0 7.35588e-20
Cg1_34 A:48 0 7.35727e-20
Cg1_35 A:50 0 7.35727e-20
Cg1_36 A:52 0 7.35727e-20
Cg1_37 A:55 0 3.31194e-18
Cg1_38 A:56 0 1.90804e-18
R1_1 A A:56 14.5833 $l=0.0420 $w=0.0120 $lvl=9
R1_2 A A:64 13.5417 $l=0.0420 $w=0.0120 $lvl=9
R1_3 A A:45 7.29167 $l=0.0210 $w=0.0120 $lvl=9
R1_4 MM16:GATE A:25 6.57895 $l=0.0150 $w=0.0120 $lvl=11
R1_5 MM16:GATE A:24 6.57895 $l=0.0150 $w=0.0120 $lvl=11
R1_6 MM15:GATE A:20 6.57895 $l=0.0150 $w=0.0120 $lvl=11
R1_7 MM15:GATE A:19 6.57895 $l=0.0150 $w=0.0120 $lvl=11
R1_8 MM0:GATE A:15 6.57895 $l=0.0150 $w=0.0120 $lvl=11
R1_9 MM0:GATE A:14 6.57895 $l=0.0150 $w=0.0120 $lvl=11
R1_10 MM22:GATE A:42 6.57895 $l=0.0150 $w=0.0120 $lvl=12
R1_11 MM22:GATE A:41 6.57895 $l=0.0150 $w=0.0120 $lvl=12
R1_12 MM21:GATE A:37 6.57895 $l=0.0150 $w=0.0120 $lvl=12
R1_13 MM21:GATE A:36 6.57895 $l=0.0150 $w=0.0120 $lvl=12
R1_14 MM18:GATE A:32 6.57895 $l=0.0150 $w=0.0120 $lvl=12
R1_15 MM18:GATE A:31 6.57895 $l=0.0150 $w=0.0120 $lvl=12
R1_16 MM17:GATE A:27 6.57895 $l=0.0150 $w=0.0120 $lvl=12
R1_17 MM17:GATE A:26 6.57895 $l=0.0150 $w=0.0120 $lvl=12
R1_18 MM14:GATE A:22 6.57895 $l=0.0150 $w=0.0120 $lvl=12
R1_19 MM14:GATE A:21 6.57895 $l=0.0150 $w=0.0120 $lvl=12
R1_20 MM1:GATE A:17 6.57895 $l=0.0150 $w=0.0120 $lvl=12
R1_21 MM1:GATE A:16 6.57895 $l=0.0150 $w=0.0120 $lvl=12
R1_22 MM23:GATE A:40 6.57895 $l=0.0150 $w=0.0120 $lvl=11
R1_23 MM23:GATE A:39 6.57895 $l=0.0150 $w=0.0120 $lvl=11
R1_24 MM20:GATE A:35 6.57895 $l=0.0150 $w=0.0120 $lvl=11
R1_25 MM20:GATE A:34 6.57895 $l=0.0150 $w=0.0120 $lvl=11
R1_26 MM19:GATE A:30 6.57895 $l=0.0150 $w=0.0120 $lvl=11
R1_27 MM19:GATE A:29 6.57895 $l=0.0150 $w=0.0120 $lvl=11
R1_28 A:14 A:57 2.19298 $l=0.0050 $w=0.0120 $lvl=10
R1_29 A:15 A:46 6.57895 $l=0.0150 $w=0.0120 $lvl=10
R1_30 A:16 A:46 6.57895 $l=0.0150 $w=0.0120 $lvl=10
R1_31 A:17 A:18 2.19298 $l=0.0050 $w=0.0120 $lvl=10
R1_32 A:19 A:58 2.19298 $l=0.0050 $w=0.0120 $lvl=10
R1_33 A:20 A:48 6.57895 $l=0.0150 $w=0.0120 $lvl=10
R1_34 A:21 A:48 6.57895 $l=0.0150 $w=0.0120 $lvl=10
R1_35 A:22 A:23 2.19298 $l=0.0050 $w=0.0120 $lvl=10
R1_36 A:24 A:59 2.19298 $l=0.0050 $w=0.0120 $lvl=10
R1_37 A:25 A:50 6.57895 $l=0.0150 $w=0.0120 $lvl=10
R1_38 A:26 A:50 6.57895 $l=0.0150 $w=0.0120 $lvl=10
R1_39 A:27 A:28 2.19298 $l=0.0050 $w=0.0120 $lvl=10
R1_40 A:29 A:60 2.19298 $l=0.0050 $w=0.0120 $lvl=10
R1_41 A:30 A:52 6.57895 $l=0.0150 $w=0.0120 $lvl=10
R1_42 A:31 A:52 6.57895 $l=0.0150 $w=0.0120 $lvl=10
R1_43 A:32 A:33 2.19298 $l=0.0050 $w=0.0120 $lvl=10
R1_44 A:34 A:61 2.19298 $l=0.0050 $w=0.0120 $lvl=10
R1_45 A:35 A:44 6.57895 $l=0.0150 $w=0.0120 $lvl=10
R1_46 A:36 A:44 6.57895 $l=0.0150 $w=0.0120 $lvl=10
R1_47 A:37 A:38 2.19298 $l=0.0050 $w=0.0120 $lvl=10
R1_48 A:39 A:62 2.19298 $l=0.0050 $w=0.0120 $lvl=10
R1_49 A:40 A:63 6.57895 $l=0.0150 $w=0.0120 $lvl=10
R1_50 A:41 A:63 6.57895 $l=0.0150 $w=0.0120 $lvl=10
R1_51 A:42 A:43 2.19298 $l=0.0050 $w=0.0120 $lvl=10
R1_52 A:44 A:54 27.7339 $l=0.0210 $w=0.0120 $lvl=14
R1_53 A:45 A:46 63.5281 $a=0.00014400 $lvl=30
R1_54 A:45 A:47 14.5833 $l=0.0420 $w=0.0120 $lvl=9
R1_55 A:47 A:48 63.5281 $a=0.00014400 $lvl=30
R1_56 A:47 A:49 14.5833 $l=0.0420 $w=0.0120 $lvl=9
R1_57 A:49 A:50 63.5281 $a=0.00014400 $lvl=30
R1_58 A:49 A:51 14.5833 $l=0.0420 $w=0.0120 $lvl=9
R1_59 A:51 A:52 63.5281 $a=0.00014400 $lvl=30
R1_60 A:51 A:53 21.875 $l=0.0630 $w=0.0120 $lvl=9
R1_61 A:53 A:54 63.5281 $a=0.00014400 $lvl=30
R1_62 A:53 A:55 2.08333 $l=0.0060 $w=0.0120 $lvl=9
R1_63 A:54 A:63 27.7339 $l=0.0210 $w=0.0120 $lvl=14

*|NET VSS 0.000145923PF
*|P (VSS B 0 0.2100 0.0000) // $llx=0.2090 $lly=-0.0010 $urx=0.2110 $ury=0.0010 $lvl=33
*|I (MM12:SRC MM12 SRC B 0 0.5100 0.0300) // $llx=0.5100 $lly=0.0300 $urx=0.5100 $ury=0.0300 $lvl=16
*|I (MM16:SRC MM16 SRC B 0 0.1200 0.0300) // $llx=0.1200 $lly=0.0300 $urx=0.1200 $ury=0.0300 $lvl=16
*|I (MM15:SRC MM15 SRC B 0 0.0900 0.0300) // $llx=0.0900 $lly=0.0300 $urx=0.0900 $ury=0.0300 $lvl=16
*|I (MM0:SRC MM0 SRC B 0 0.0360 0.0300) // $llx=0.0360 $lly=0.0300 $urx=0.0360 $ury=0.0300 $lvl=16
*|I (MM10:SRC MM10 SRC B 0 0.4560 0.0300) // $llx=0.4560 $lly=0.0300 $urx=0.4560 $ury=0.0300 $lvl=16
*|I (MM9:SRC MM9 SRC B 0 0.4260 0.0300) // $llx=0.4260 $lly=0.0300 $urx=0.4260 $ury=0.0300 $lvl=16
*|I (MM7:SRC MM7 SRC B 0 0.3720 0.0300) // $llx=0.3720 $lly=0.0300 $urx=0.3720 $ury=0.0300 $lvl=16
*|I (MM4:SRC MM4 SRC B 0 0.3420 0.0300) // $llx=0.3420 $lly=0.0300 $urx=0.3420 $ury=0.0300 $lvl=16
*|I (MM3:BULK MM3 BULK B 0 0.2940 0.0300) // $llx=0.2940 $lly=0.0300 $urx=0.2940 $ury=0.0300 $lvl=20
*|I (MM3:SRC MM3 SRC B 0 0.2880 0.0300) // $llx=0.2880 $lly=0.0300 $urx=0.2880 $ury=0.0300 $lvl=16
*|I (MM23:SRC MM23 SRC B 0 0.2580 0.0300) // $llx=0.2580 $lly=0.0300 $urx=0.2580 $ury=0.0300 $lvl=16
*|I (MM20:SRC MM20 SRC B 0 0.2040 0.0300) // $llx=0.2040 $lly=0.0300 $urx=0.2040 $ury=0.0300 $lvl=16
*|I (MM19:SRC MM19 SRC B 0 0.1740 0.0300) // $llx=0.1740 $lly=0.0300 $urx=0.1740 $ury=0.0300 $lvl=16
*|I (MM3:BULK MM12 BULK B 0 0.5040 0.0300) // $llx=0.5040 $lly=0.0300 $urx=0.5040 $ury=0.0300 $lvl=20
*|I (MM3:BULK MM16 BULK B 0 0.1260 0.0300) // $llx=0.1260 $lly=0.0300 $urx=0.1260 $ury=0.0300 $lvl=20
*|I (MM3:BULK MM15 BULK B 0 0.0840 0.0300) // $llx=0.0840 $lly=0.0300 $urx=0.0840 $ury=0.0300 $lvl=20
*|I (MM3:BULK MM0 BULK B 0 0.0420 0.0300) // $llx=0.0420 $lly=0.0300 $urx=0.0420 $ury=0.0300 $lvl=20
*|I (MM3:BULK MM10 BULK B 0 0.4620 0.0300) // $llx=0.4620 $lly=0.0300 $urx=0.4620 $ury=0.0300 $lvl=20
*|I (MM3:BULK MM9 BULK B 0 0.4200 0.0300) // $llx=0.4200 $lly=0.0300 $urx=0.4200 $ury=0.0300 $lvl=20
*|I (MM3:BULK MM7 BULK B 0 0.3780 0.0300) // $llx=0.3780 $lly=0.0300 $urx=0.3780 $ury=0.0300 $lvl=20
*|I (MM3:BULK MM4 BULK B 0 0.3360 0.0300) // $llx=0.3360 $lly=0.0300 $urx=0.3360 $ury=0.0300 $lvl=20
*|I (MM3:BULK MM23 BULK B 0 0.2520 0.0300) // $llx=0.2520 $lly=0.0300 $urx=0.2520 $ury=0.0300 $lvl=20
*|I (MM3:BULK MM20 BULK B 0 0.2100 0.0300) // $llx=0.2100 $lly=0.0300 $urx=0.2100 $ury=0.0300 $lvl=20
*|I (MM3:BULK MM19 BULK B 0 0.1680 0.0300) // $llx=0.1680 $lly=0.0300 $urx=0.1680 $ury=0.0300 $lvl=20
*|S (VSS:15 0.0210 0.0150) // $llx=0.0110 $lly=0.0150 $urx=0.0310 $ury=0.0150 $lvl=15
*|S (VSS:16 0.1050 0.0150) // $llx=0.0950 $lly=0.0150 $urx=0.1150 $ury=0.0150 $lvl=15
*|S (VSS:17 0.1890 0.0150) // $llx=0.1790 $lly=0.0150 $urx=0.1990 $ury=0.0150 $lvl=15
*|S (VSS:18 0.2730 0.0150) // $llx=0.2630 $lly=0.0150 $urx=0.2830 $ury=0.0150 $lvl=15
*|S (VSS:19 0.3570 0.0150) // $llx=0.3470 $lly=0.0150 $urx=0.3670 $ury=0.0150 $lvl=15
*|S (VSS:20 0.4410 0.0150) // $llx=0.4310 $lly=0.0150 $urx=0.4510 $ury=0.0150 $lvl=15
*|S (VSS:21 0.5250 0.0150) // $llx=0.5150 $lly=0.0150 $urx=0.5350 $ury=0.0150 $lvl=15
*|S (VSS:22 0.0210 0.0000) // $llx=0.0150 $lly=-0.0060 $urx=0.0270 $ury=0.0060 $lvl=9
*|S (VSS:23 0.0210 0.0000) // $llx=0.0110 $lly=-0.0060 $urx=0.0310 $ury=0.0060 $lvl=13
*|S (VSS:24 0.0630 0.0000) // $llx=0.0570 $lly=-0.0060 $urx=0.0690 $ury=0.0060 $lvl=9
*|S (VSS:25 0.0630 0.0000) // $llx=0.0570 $lly=-0.0060 $urx=0.0690 $ury=0.0060 $lvl=14
*|S (VSS:26 0.1050 0.0000) // $llx=0.0990 $lly=-0.0060 $urx=0.1110 $ury=0.0060 $lvl=9
*|S (VSS:27 0.1050 0.0000) // $llx=0.0950 $lly=-0.0060 $urx=0.1150 $ury=0.0060 $lvl=13
*|S (VSS:28 0.1470 0.0000) // $llx=0.1410 $lly=-0.0060 $urx=0.1530 $ury=0.0060 $lvl=9
*|S (VSS:29 0.1470 0.0000) // $llx=0.1410 $lly=-0.0060 $urx=0.1530 $ury=0.0060 $lvl=14
*|S (VSS:30 0.1890 0.0000) // $llx=0.1830 $lly=-0.0060 $urx=0.1950 $ury=0.0060 $lvl=9
*|S (VSS:31 0.1890 0.0000) // $llx=0.1790 $lly=-0.0060 $urx=0.1990 $ury=0.0060 $lvl=13
*|S (VSS:32 0.2310 0.0000) // $llx=0.2250 $lly=-0.0060 $urx=0.2370 $ury=0.0060 $lvl=9
*|S (VSS:33 0.2310 0.0000) // $llx=0.2250 $lly=-0.0060 $urx=0.2370 $ury=0.0060 $lvl=14
*|S (VSS:34 0.2730 0.0000) // $llx=0.2670 $lly=-0.0060 $urx=0.2790 $ury=0.0060 $lvl=9
*|S (VSS:35 0.2730 0.0000) // $llx=0.2630 $lly=-0.0060 $urx=0.2830 $ury=0.0060 $lvl=13
*|S (VSS:36 0.3150 0.0000) // $llx=0.3090 $lly=-0.0060 $urx=0.3210 $ury=0.0060 $lvl=9
*|S (VSS:37 0.3150 0.0000) // $llx=0.3090 $lly=-0.0060 $urx=0.3210 $ury=0.0060 $lvl=14
*|S (VSS:38 0.3570 0.0000) // $llx=0.3510 $lly=-0.0060 $urx=0.3630 $ury=0.0060 $lvl=9
*|S (VSS:39 0.3570 0.0000) // $llx=0.3470 $lly=-0.0060 $urx=0.3670 $ury=0.0060 $lvl=13
*|S (VSS:40 0.3990 0.0000) // $llx=0.3930 $lly=-0.0060 $urx=0.4050 $ury=0.0060 $lvl=9
*|S (VSS:41 0.3990 0.0000) // $llx=0.3930 $lly=-0.0060 $urx=0.4050 $ury=0.0060 $lvl=14
*|S (VSS:42 0.4410 0.0000) // $llx=0.4350 $lly=-0.0060 $urx=0.4470 $ury=0.0060 $lvl=9
*|S (VSS:43 0.4410 0.0000) // $llx=0.4310 $lly=-0.0060 $urx=0.4510 $ury=0.0060 $lvl=13
*|S (VSS:44 0.4830 0.0000) // $llx=0.4770 $lly=-0.0060 $urx=0.4890 $ury=0.0060 $lvl=9
*|S (VSS:45 0.4830 0.0000) // $llx=0.4770 $lly=-0.0060 $urx=0.4890 $ury=0.0060 $lvl=14
*|S (VSS:46 0.5250 0.0000) // $llx=0.5190 $lly=-0.0060 $urx=0.5310 $ury=0.0060 $lvl=9
*|S (VSS:47 0.5250 0.0000) // $llx=0.5150 $lly=-0.0060 $urx=0.5350 $ury=0.0060 $lvl=13
*|S (VSS:48 0.0210 0.0450) // $llx=0.0110 $lly=0.0450 $urx=0.0310 $ury=0.0450 $lvl=15
*|S (VSS:49 0.1050 0.0450) // $llx=0.0950 $lly=0.0450 $urx=0.1150 $ury=0.0450 $lvl=15
*|S (VSS:50 0.1890 0.0450) // $llx=0.1790 $lly=0.0450 $urx=0.1990 $ury=0.0450 $lvl=15
*|S (VSS:51 0.2730 0.0450) // $llx=0.2630 $lly=0.0450 $urx=0.2830 $ury=0.0450 $lvl=15
*|S (VSS:52 0.3570 0.0450) // $llx=0.3470 $lly=0.0450 $urx=0.3670 $ury=0.0450 $lvl=15
*|S (VSS:53 0.4410 0.0450) // $llx=0.4310 $lly=0.0450 $urx=0.4510 $ury=0.0450 $lvl=15
*|S (VSS:54 0.5250 0.0450) // $llx=0.5150 $lly=0.0450 $urx=0.5350 $ury=0.0450 $lvl=15
*|S (VSS:55 -0.0090 0.0000) // $llx=-0.0090 $lly=-0.0060 $urx=-0.0090 $ury=0.0060 $lvl=9
*|S (VSS:56 -0.0090 0.0000) // $llx=-0.0090 $lly=-0.0060 $urx=-0.0090 $ury=0.0060 $lvl=14
*|S (VSS:57 0.5550 0.0000) // $llx=0.5550 $lly=-0.0060 $urx=0.5550 $ury=0.0060 $lvl=14
*|S (VSS:58 0.0210 0.0300) // $llx=0.0110 $lly=0.0300 $urx=0.0310 $ury=0.0300 $lvl=15
*|S (VSS:59 0.1050 0.0300) // $llx=0.0950 $lly=0.0300 $urx=0.1150 $ury=0.0300 $lvl=15
*|S (VSS:60 0.1890 0.0300) // $llx=0.1790 $lly=0.0300 $urx=0.1990 $ury=0.0300 $lvl=15
*|S (VSS:61 0.2730 0.0300) // $llx=0.2630 $lly=0.0300 $urx=0.2830 $ury=0.0300 $lvl=15
*|S (VSS:62 0.3570 0.0300) // $llx=0.3470 $lly=0.0300 $urx=0.3670 $ury=0.0300 $lvl=15
*|S (VSS:63 0.4410 0.0300) // $llx=0.4310 $lly=0.0300 $urx=0.4510 $ury=0.0300 $lvl=15
*|S (VSS:64 0.5250 0.0300) // $llx=0.5150 $lly=0.0300 $urx=0.5350 $ury=0.0300 $lvl=15
*|S (VSS:65 0.5550 0.0000) // $llx=0.5550 $lly=-0.0060 $urx=0.5550 $ury=0.0060 $lvl=9
C2_1 MM3:BULK A 4.37305e-19
C2_2 VSS:15 A 2.45113e-19
C2_3 VSS:23 A 3.44814e-19
C2_4 VSS:47 A 1.00765e-19
C2_5 VSS:48 A 4.3527e-20
C2_6 VSS:55 A 1.98457e-18
C2_7 VSS:47 A:16 4.41316e-20
C2_8 VSS:47 A:21 4.30793e-20
C2_9 VSS:47 A:26 4.30793e-20
C2_10 VSS:47 A:31 4.30793e-20
C2_11 VSS:47 A:36 4.30793e-20
C2_12 VSS:47 A:41 4.30793e-20
C2_13 VSS:47 A:44 7.57903e-21
C2_14 VSS:47 A:46 3.78951e-21
C2_15 VSS:47 A:48 3.78951e-21
C2_16 VSS:47 A:50 3.78951e-21
C2_17 VSS:47 A:52 3.78951e-21
C2_18 MM3:BULK A:55 9.5579e-19
C2_19 VSS:47 A:55 2.22565e-20
C2_20 VSS:55 A:55 1.70404e-18
C2_21 MM3:BULK A:56 2.94942e-19
Cg2_22 MM3:BULK 0 1.76577e-17
Cg2_23 VSS:15 0 2.656e-19
Cg2_24 VSS:16 0 2.73586e-19
Cg2_25 VSS:17 0 2.73586e-19
Cg2_26 VSS:18 0 2.656e-19
Cg2_27 VSS:19 0 2.73586e-19
Cg2_28 VSS:20 0 2.73586e-19
Cg2_29 VSS:21 0 1.78742e-19
Cg2_30 VSS:23 0 6.02945e-19
Cg2_31 VSS:27 0 3.19485e-19
Cg2_32 VSS:31 0 3.16769e-19
Cg2_33 VSS:35 0 3.18114e-19
Cg2_34 VSS:39 0 3.35177e-19
Cg2_35 VSS:43 0 3.11702e-19
Cg2_36 VSS:47 0 4.72915e-18
Cg2_37 VSS:48 0 5.17687e-19
Cg2_38 VSS:49 0 6.21225e-19
Cg2_39 VSS:50 0 6.21225e-19
Cg2_40 VSS:51 0 6.21225e-19
Cg2_41 VSS:52 0 6.21225e-19
Cg2_42 VSS:53 0 6.21225e-19
Cg2_43 VSS:54 0 5.17687e-19
Cg2_44 VSS:55 0 1.48443e-17
R2_1 VSS VSS:32 7.29167 $l=0.0210 $w=0.0120 $lvl=9
R2_2 VSS VSS:30 7.29167 $l=0.0210 $w=0.0120 $lvl=9
R2_3 MM12:SRC VSS:54 2.0 $l=0.0150 $w=0.0075 $lvl=16
R2_4 MM12:SRC VSS:21 2.0 $l=0.0150 $w=0.0075 $lvl=16
R2_5 MM12:SRC VSS:64 1.0 $l=0.0150 $w=0.0150 $lvl=16
R2_6 MM16:SRC VSS:49 2.0 $l=0.0150 $w=0.0075 $lvl=16
R2_7 MM16:SRC VSS:16 2.0 $l=0.0150 $w=0.0075 $lvl=16
R2_8 MM16:SRC VSS:59 1.0 $l=0.0150 $w=0.0150 $lvl=16
R2_9 MM15:SRC VSS:49 2.0 $l=0.0150 $w=0.0075 $lvl=16
R2_10 MM15:SRC VSS:16 2.0 $l=0.0150 $w=0.0075 $lvl=16
R2_11 MM15:SRC VSS:59 1.0 $l=0.0150 $w=0.0150 $lvl=16
R2_12 MM0:SRC VSS:48 2.0 $l=0.0150 $w=0.0075 $lvl=16
R2_13 MM0:SRC VSS:15 2.0 $l=0.0150 $w=0.0075 $lvl=16
R2_14 MM0:SRC VSS:58 1.0 $l=0.0150 $w=0.0150 $lvl=16
R2_15 MM10:SRC VSS:53 2.0 $l=0.0150 $w=0.0075 $lvl=16
R2_16 MM10:SRC VSS:20 2.0 $l=0.0150 $w=0.0075 $lvl=16
R2_17 MM10:SRC VSS:63 1.0 $l=0.0150 $w=0.0150 $lvl=16
R2_18 MM9:SRC VSS:53 2.0 $l=0.0150 $w=0.0075 $lvl=16
R2_19 MM9:SRC VSS:20 2.0 $l=0.0150 $w=0.0075 $lvl=16
R2_20 MM9:SRC VSS:63 1.0 $l=0.0150 $w=0.0150 $lvl=16
R2_21 MM7:SRC VSS:52 2.0 $l=0.0150 $w=0.0075 $lvl=16
R2_22 MM7:SRC VSS:19 2.0 $l=0.0150 $w=0.0075 $lvl=16
R2_23 MM7:SRC VSS:62 1.0 $l=0.0150 $w=0.0150 $lvl=16
R2_24 MM4:SRC VSS:52 2.0 $l=0.0150 $w=0.0075 $lvl=16
R2_25 MM4:SRC VSS:19 2.0 $l=0.0150 $w=0.0075 $lvl=16
R2_26 MM4:SRC VSS:62 1.0 $l=0.0150 $w=0.0150 $lvl=16
R2_27 MM3:SRC VSS:51 2.0 $l=0.0150 $w=0.0075 $lvl=16
R2_28 MM3:SRC VSS:18 2.0 $l=0.0150 $w=0.0075 $lvl=16
R2_29 MM3:SRC VSS:61 1.0 $l=0.0150 $w=0.0150 $lvl=16
R2_30 MM23:SRC VSS:51 2.0 $l=0.0150 $w=0.0075 $lvl=16
R2_31 MM23:SRC VSS:18 2.0 $l=0.0150 $w=0.0075 $lvl=16
R2_32 MM23:SRC VSS:61 1.0 $l=0.0150 $w=0.0150 $lvl=16
R2_33 MM20:SRC VSS:50 2.0 $l=0.0150 $w=0.0075 $lvl=16
R2_34 MM20:SRC VSS:17 2.0 $l=0.0150 $w=0.0075 $lvl=16
R2_35 MM20:SRC VSS:60 1.0 $l=0.0150 $w=0.0150 $lvl=16
R2_36 MM19:SRC VSS:50 2.0 $l=0.0150 $w=0.0075 $lvl=16
R2_37 MM19:SRC VSS:17 2.0 $l=0.0150 $w=0.0075 $lvl=16
R2_38 MM19:SRC VSS:60 1.0 $l=0.0150 $w=0.0150 $lvl=16
R2_39 VSS:15 VSS:58 2.73284 $l=0.0150 $w=0.0225 $lvl=16
R2_40 VSS:15 VSS:23 8.89907 $l=0.0150 $w=0.0200 $lvl=13
R2_41 VSS:16 VSS:59 1.87763 $l=0.0150 $w=0.0250 $lvl=16
R2_42 VSS:16 VSS:27 8.89907 $l=0.0150 $w=0.0200 $lvl=13
R2_43 VSS:17 VSS:60 1.87763 $l=0.0150 $w=0.0250 $lvl=16
R2_44 VSS:17 VSS:31 8.89907 $l=0.0150 $w=0.0200 $lvl=13
R2_45 VSS:18 VSS:61 1.87763 $l=0.0150 $w=0.0250 $lvl=16
R2_46 VSS:18 VSS:35 8.89907 $l=0.0150 $w=0.0200 $lvl=13
R2_47 VSS:19 VSS:62 1.87763 $l=0.0150 $w=0.0250 $lvl=16
R2_48 VSS:19 VSS:39 8.89907 $l=0.0150 $w=0.0200 $lvl=13
R2_49 VSS:20 VSS:63 1.87763 $l=0.0150 $w=0.0250 $lvl=16
R2_50 VSS:20 VSS:43 8.89907 $l=0.0150 $w=0.0200 $lvl=13
R2_51 VSS:21 VSS:64 2.73284 $l=0.0150 $w=0.0225 $lvl=16
R2_52 VSS:21 VSS:47 8.89907 $l=0.0150 $w=0.0200 $lvl=13
R2_53 VSS:22 VSS:23 31.764 $a=0.00028800 $lvl=31
R2_54 VSS:22 VSS:55 10.4167 $l=0.0300 $w=0.0120 $lvl=9
R2_55 VSS:22 VSS:24 14.5833 $l=0.0420 $w=0.0120 $lvl=9
R2_56 VSS:23 VSS:25 50.1851 $l=0.0420 $w=0.0120 $lvl=14
R2_57 VSS:23 VSS:56 34.3372 $l=0.0300 $w=0.0120 $lvl=14
R2_58 VSS:24 VSS:25 63.5281 $a=0.00014400 $lvl=30
R2_59 VSS:24 VSS:26 14.5833 $l=0.0420 $w=0.0120 $lvl=9
R2_60 VSS:25 VSS:27 50.1851 $l=0.0420 $w=0.0120 $lvl=14
R2_61 VSS:26 VSS:27 31.764 $a=0.00028800 $lvl=31
R2_62 VSS:26 VSS:28 14.5833 $l=0.0420 $w=0.0120 $lvl=9
R2_63 VSS:27 VSS:29 50.1851 $l=0.0420 $w=0.0120 $lvl=14
R2_64 VSS:28 VSS:29 63.5281 $a=0.00014400 $lvl=30
R2_65 VSS:28 VSS:30 14.5833 $l=0.0420 $w=0.0120 $lvl=9
R2_66 VSS:29 VSS:31 50.1851 $l=0.0420 $w=0.0120 $lvl=14
R2_67 VSS:30 VSS:31 31.764 $a=0.00028800 $lvl=31
R2_68 VSS:31 VSS:33 50.1851 $l=0.0420 $w=0.0120 $lvl=14
R2_69 VSS:32 VSS:33 63.5281 $a=0.00014400 $lvl=30
R2_70 VSS:32 VSS:34 14.5833 $l=0.0420 $w=0.0120 $lvl=9
R2_71 VSS:33 VSS:35 50.1851 $l=0.0420 $w=0.0120 $lvl=14
R2_72 VSS:34 VSS:35 31.764 $a=0.00028800 $lvl=31
R2_73 VSS:34 VSS:36 14.5833 $l=0.0420 $w=0.0120 $lvl=9
R2_74 VSS:35 VSS:37 50.1851 $l=0.0420 $w=0.0120 $lvl=14
R2_75 VSS:36 VSS:37 63.5281 $a=0.00014400 $lvl=30
R2_76 VSS:36 VSS:38 14.5833 $l=0.0420 $w=0.0120 $lvl=9
R2_77 VSS:37 VSS:39 50.1851 $l=0.0420 $w=0.0120 $lvl=14
R2_78 VSS:38 VSS:39 31.764 $a=0.00028800 $lvl=31
R2_79 VSS:38 VSS:40 14.5833 $l=0.0420 $w=0.0120 $lvl=9
R2_80 VSS:39 VSS:41 50.1851 $l=0.0420 $w=0.0120 $lvl=14
R2_81 VSS:40 VSS:41 63.5281 $a=0.00014400 $lvl=30
R2_82 VSS:40 VSS:42 14.5833 $l=0.0420 $w=0.0120 $lvl=9
R2_83 VSS:41 VSS:43 50.1851 $l=0.0420 $w=0.0120 $lvl=14
R2_84 VSS:42 VSS:43 31.764 $a=0.00028800 $lvl=31
R2_85 VSS:42 VSS:44 14.5833 $l=0.0420 $w=0.0120 $lvl=9
R2_86 VSS:43 VSS:45 50.1851 $l=0.0420 $w=0.0120 $lvl=14
R2_87 VSS:44 VSS:45 63.5281 $a=0.00014400 $lvl=30
R2_88 VSS:44 VSS:46 14.5833 $l=0.0420 $w=0.0120 $lvl=9
R2_89 VSS:45 VSS:47 50.1851 $l=0.0420 $w=0.0120 $lvl=14
R2_90 VSS:46 VSS:47 31.764 $a=0.00028800 $lvl=31
R2_91 VSS:46 VSS:65 10.4167 $l=0.0300 $w=0.0120 $lvl=9
R2_92 VSS:47 VSS:57 34.3372 $l=0.0300 $w=0.0120 $lvl=14
R2_93 VSS:48 VSS:58 2.73284 $l=0.0150 $w=0.0225 $lvl=16
R2_94 VSS:49 VSS:59 1.87763 $l=0.0150 $w=0.0250 $lvl=16
R2_95 VSS:50 VSS:60 1.87763 $l=0.0150 $w=0.0250 $lvl=16
R2_96 VSS:51 VSS:61 1.87763 $l=0.0150 $w=0.0250 $lvl=16
R2_97 VSS:52 VSS:62 1.87763 $l=0.0150 $w=0.0250 $lvl=16
R2_98 VSS:53 VSS:63 1.87763 $l=0.0150 $w=0.0250 $lvl=16
R2_99 VSS:54 VSS:64 2.73284 $l=0.0150 $w=0.0225 $lvl=16
R2_100 MM3:SRC MM3:BULK 0.01 $l=0.0060 $w=100.0000 $lvl=0

*|NET VDD 0.000162909PF
*|P (VDD B 0 0.2420 0.0700) // $llx=0.2410 $lly=0.0690 $urx=0.2430 $ury=0.0690 $lvl=19
*|P (VDD_1 B 0 0.2100 0.1200) // $llx=0.2090 $lly=0.1190 $urx=0.2110 $ury=0.1210 $lvl=33
*|I (MM13:BULK MM13 BULK B 0 0.5040 0.0900) // $llx=0.5040 $lly=0.0900 $urx=0.5040 $ury=0.0900 $lvl=19
*|I (MM13:SRC MM13 SRC B 0 0.5100 0.0900) // $llx=0.5100 $lly=0.0900 $urx=0.5100 $ury=0.0900 $lvl=17
*|I (MM11:BULK MM11 BULK B 0 0.4620 0.0900) // $llx=0.4620 $lly=0.0900 $urx=0.4620 $ury=0.0900 $lvl=19
*|I (MM11:SRC MM11 SRC B 0 0.4560 0.0900) // $llx=0.4560 $lly=0.0900 $urx=0.4560 $ury=0.0900 $lvl=17
*|I (MM8:BULK MM8 BULK B 0 0.4200 0.0900) // $llx=0.4200 $lly=0.0900 $urx=0.4200 $ury=0.0900 $lvl=19
*|I (MM8:SRC MM8 SRC B 0 0.4260 0.0900) // $llx=0.4260 $lly=0.0900 $urx=0.4260 $ury=0.0900 $lvl=17
*|I (MM6:BULK MM6 BULK B 0 0.3780 0.0900) // $llx=0.3780 $lly=0.0900 $urx=0.3780 $ury=0.0900 $lvl=19
*|I (MM6:SRC MM6 SRC B 0 0.3720 0.0900) // $llx=0.3720 $lly=0.0900 $urx=0.3720 $ury=0.0900 $lvl=17
*|I (MM5:BULK MM5 BULK B 0 0.3360 0.0900) // $llx=0.3360 $lly=0.0900 $urx=0.3360 $ury=0.0900 $lvl=19
*|I (MM5:SRC MM5 SRC B 0 0.3420 0.0900) // $llx=0.3420 $lly=0.0900 $urx=0.3420 $ury=0.0900 $lvl=17
*|I (MM2:BULK MM2 BULK B 0 0.2940 0.0900) // $llx=0.2940 $lly=0.0900 $urx=0.2940 $ury=0.0900 $lvl=19
*|I (MM2:SRC MM2 SRC B 0 0.2880 0.0900) // $llx=0.2880 $lly=0.0900 $urx=0.2880 $ury=0.0900 $lvl=17
*|I (MM22:BULK MM22 BULK B 0 0.2520 0.0900) // $llx=0.2520 $lly=0.0900 $urx=0.2520 $ury=0.0900 $lvl=19
*|I (MM22:SRC MM22 SRC B 0 0.2580 0.0900) // $llx=0.2580 $lly=0.0900 $urx=0.2580 $ury=0.0900 $lvl=17
*|I (MM21:BULK MM21 BULK B 0 0.2100 0.0900) // $llx=0.2100 $lly=0.0900 $urx=0.2100 $ury=0.0900 $lvl=19
*|I (MM21:SRC MM21 SRC B 0 0.2040 0.0900) // $llx=0.2040 $lly=0.0900 $urx=0.2040 $ury=0.0900 $lvl=17
*|I (MM18:BULK MM18 BULK B 0 0.1680 0.0900) // $llx=0.1680 $lly=0.0900 $urx=0.1680 $ury=0.0900 $lvl=19
*|I (MM18:SRC MM18 SRC B 0 0.1740 0.0900) // $llx=0.1740 $lly=0.0900 $urx=0.1740 $ury=0.0900 $lvl=17
*|I (MM17:BULK MM17 BULK B 0 0.1260 0.0900) // $llx=0.1260 $lly=0.0900 $urx=0.1260 $ury=0.0900 $lvl=19
*|I (MM17:SRC MM17 SRC B 0 0.1200 0.0900) // $llx=0.1200 $lly=0.0900 $urx=0.1200 $ury=0.0900 $lvl=17
*|I (MM14:BULK MM14 BULK B 0 0.0840 0.0900) // $llx=0.0840 $lly=0.0900 $urx=0.0840 $ury=0.0900 $lvl=19
*|I (MM14:SRC MM14 SRC B 0 0.0900 0.0900) // $llx=0.0900 $lly=0.0900 $urx=0.0900 $ury=0.0900 $lvl=17
*|I (MM1:BULK MM1 BULK B 0 0.0420 0.0900) // $llx=0.0420 $lly=0.0900 $urx=0.0420 $ury=0.0900 $lvl=19
*|I (MM1:SRC MM1 SRC B 0 0.0360 0.0900) // $llx=0.0360 $lly=0.0900 $urx=0.0360 $ury=0.0900 $lvl=17
*|S (VDD:26 0.0210 0.0750) // $llx=0.0110 $lly=0.0750 $urx=0.0310 $ury=0.0750 $lvl=15
*|S (VDD:27 0.1050 0.0750) // $llx=0.0950 $lly=0.0750 $urx=0.1150 $ury=0.0750 $lvl=15
*|S (VDD:28 0.1890 0.0750) // $llx=0.1790 $lly=0.0750 $urx=0.1990 $ury=0.0750 $lvl=15
*|S (VDD:29 0.2730 0.0750) // $llx=0.2630 $lly=0.0750 $urx=0.2830 $ury=0.0750 $lvl=15
*|S (VDD:30 0.3570 0.0750) // $llx=0.3470 $lly=0.0750 $urx=0.3670 $ury=0.0750 $lvl=15
*|S (VDD:31 0.4410 0.0750) // $llx=0.4310 $lly=0.0750 $urx=0.4510 $ury=0.0750 $lvl=15
*|S (VDD:32 0.5250 0.0750) // $llx=0.5150 $lly=0.0750 $urx=0.5350 $ury=0.0750 $lvl=15
*|S (VDD:33 0.0210 0.1200) // $llx=0.0150 $lly=0.1140 $urx=0.0270 $ury=0.1260 $lvl=9
*|S (VDD:34 0.0630 0.1200) // $llx=0.0570 $lly=0.1140 $urx=0.0690 $ury=0.1260 $lvl=9
*|S (VDD:35 0.0630 0.1200) // $llx=0.0570 $lly=0.1140 $urx=0.0690 $ury=0.1260 $lvl=14
*|S (VDD:36 0.1050 0.1200) // $llx=0.0990 $lly=0.1140 $urx=0.1110 $ury=0.1260 $lvl=9
*|S (VDD:37 0.1470 0.1200) // $llx=0.1410 $lly=0.1140 $urx=0.1530 $ury=0.1260 $lvl=9
*|S (VDD:38 0.1470 0.1200) // $llx=0.1410 $lly=0.1140 $urx=0.1530 $ury=0.1260 $lvl=14
*|S (VDD:39 0.1890 0.1200) // $llx=0.1830 $lly=0.1140 $urx=0.1950 $ury=0.1260 $lvl=9
*|S (VDD:40 0.2310 0.1200) // $llx=0.2250 $lly=0.1140 $urx=0.2370 $ury=0.1260 $lvl=9
*|S (VDD:41 0.2310 0.1200) // $llx=0.2250 $lly=0.1140 $urx=0.2370 $ury=0.1260 $lvl=14
*|S (VDD:42 0.2730 0.1200) // $llx=0.2670 $lly=0.1140 $urx=0.2790 $ury=0.1260 $lvl=9
*|S (VDD:43 0.3150 0.1200) // $llx=0.3090 $lly=0.1140 $urx=0.3210 $ury=0.1260 $lvl=9
*|S (VDD:44 0.3150 0.1200) // $llx=0.3090 $lly=0.1140 $urx=0.3210 $ury=0.1260 $lvl=14
*|S (VDD:45 0.3570 0.1200) // $llx=0.3510 $lly=0.1140 $urx=0.3630 $ury=0.1260 $lvl=9
*|S (VDD:46 0.3990 0.1200) // $llx=0.3930 $lly=0.1140 $urx=0.4050 $ury=0.1260 $lvl=9
*|S (VDD:47 0.3990 0.1200) // $llx=0.3930 $lly=0.1140 $urx=0.4050 $ury=0.1260 $lvl=14
*|S (VDD:48 0.4410 0.1200) // $llx=0.4350 $lly=0.1140 $urx=0.4470 $ury=0.1260 $lvl=9
*|S (VDD:49 0.4830 0.1200) // $llx=0.4770 $lly=0.1140 $urx=0.4890 $ury=0.1260 $lvl=9
*|S (VDD:50 0.4830 0.1200) // $llx=0.4770 $lly=0.1140 $urx=0.4890 $ury=0.1260 $lvl=14
*|S (VDD:51 0.5250 0.1200) // $llx=0.5190 $lly=0.1140 $urx=0.5310 $ury=0.1260 $lvl=9
*|S (VDD:52 0.5250 0.1200) // $llx=0.5150 $lly=0.1140 $urx=0.5350 $ury=0.1260 $lvl=13
*|S (VDD:53 0.0360 0.0900) // $llx=0.0360 $lly=0.0600 $urx=0.0360 $ury=0.1200 $lvl=18
*|S (VDD:54 0.0210 0.1050) // $llx=0.0110 $lly=0.1050 $urx=0.0310 $ury=0.1050 $lvl=15