*
*|DSPF 1.3
*|DESIGN INVx16
*|DATE "Tue Oct 15 21:10:45 2024"
*|VENDOR "Synopsys"
*|PROGRAM "StarRC"
*|VERSION "V-2023.12-SP5"
*|DIVIDER .
*|DELIMITER :
**FORMAT SPF
*

** COMMENTS

** OPERATING_TEMPERATURE 25
** GLOBAL_TEMPERATURE 25
** 
** TCAD_GRD_FILE /home/gtcad/ctsai314/ITF_Modification/0_reference/3nm_FF_noBPR.nxtgrd
**   TCAD_TIME_STAMP Tue Sep 3 21:56:12 2024
**   TCADGRD_VERSION 89

.SUBCKT INVx16 A VDD VSS Y

*|GROUND_NET 0

*LAYER_MAP

*0 SUBSTRATE
*1 m9    ITF=M9
*2 m8    ITF=M8
*3 m7    ITF=M7
*4 m6    ITF=M6
*5 m5    ITF=M5
*6 m4    ITF=M4
*7 m3    ITF=M3
*8 m2    ITF=M2
*9 m1    ITF=M1
*10 fpoly    ITF=Gate
*11 ngate    ITF=Gate
*12 pgate    ITF=Gate
*13 lisd    ITF=LISD
*14 lig    ITF=LIG
*15 sdt    ITF=SDT
*16 nsd    ITF=Active
*17 psd    ITF=Active
*18 pselect    ITF=Active
*19 well    ITF=Active
*20 sub    ITF=Active
*21 nselect    ITF=Active
*22 v8    ITF=V8
*23 v7    ITF=V7
*24 v6    ITF=V6
*25 v5    ITF=V5
*26 v4    ITF=V4
*27 v3    ITF=V3
*28 v2    ITF=V2
*29 v1    ITF=V1
*30 v0lig    ITF=V0LIG
*31 v0lisd    ITF=V0LISD
*32 well_pin    ITF=Active
*33 M1_pin    ITF=M1
*34 M2_pin    ITF=M2
*35 M3_pin    ITF=M3
*36 M4_pin    ITF=M4
*37 M5_pin    ITF=M5
*38 M6_pin    ITF=M6
*39 M7_pin    ITF=M7
*40 M8_pin    ITF=M8
*41 M9_pin    ITF=M9

*|NET A 0.000141707PF
*|P (A B 0 0.0210 0.0600) // $llx=0.0200 $lly=0.0590 $urx=0.0220 $ury=0.0610 $lvl=33
*|I (MM31:GATE MM31 GATE I 3.6e-19 0.6720 0.0300) // $llx=0.6720 $lly=0.0300 $urx=0.6720 $ury=0.0300 $lvl=11
*|I (MM6:GATE MM6 GATE I 3.6e-19 0.2940 0.0300) // $llx=0.2940 $lly=0.0300 $urx=0.2940 $ury=0.0300 $lvl=11
*|I (MM5:GATE MM5 GATE I 3.6e-19 0.2520 0.0300) // $llx=0.2520 $lly=0.0300 $urx=0.2520 $ury=0.0300 $lvl=11
*|I (MM4:GATE MM4 GATE I 3.6e-19 0.2100 0.0300) // $llx=0.2100 $lly=0.0300 $urx=0.2100 $ury=0.0300 $lvl=11
*|I (MM3:GATE MM3 GATE I 3.6e-19 0.1680 0.0300) // $llx=0.1680 $lly=0.0300 $urx=0.1680 $ury=0.0300 $lvl=11
*|I (MM2:GATE MM2 GATE I 3.6e-19 0.1260 0.0300) // $llx=0.1260 $lly=0.0300 $urx=0.1260 $ury=0.0300 $lvl=11
*|I (MM1:GATE MM1 GATE I 3.6e-19 0.0840 0.0300) // $llx=0.0840 $lly=0.0300 $urx=0.0840 $ury=0.0300 $lvl=11
*|I (MM0:GATE MM0 GATE I 3.6e-19 0.0420 0.0300) // $llx=0.0420 $lly=0.0300 $urx=0.0420 $ury=0.0300 $lvl=11
*|I (MM30:GATE MM30 GATE I 3.6e-19 0.6720 0.0900) // $llx=0.6720 $lly=0.0900 $urx=0.6720 $ury=0.0900 $lvl=12
*|I (MM29:GATE MM29 GATE I 3.6e-19 0.6300 0.0900) // $llx=0.6300 $lly=0.0900 $urx=0.6300 $ury=0.0900 $lvl=12
*|I (MM26:GATE MM26 GATE I 3.6e-19 0.5880 0.0900) // $llx=0.5880 $lly=0.0900 $urx=0.5880 $ury=0.0900 $lvl=12
*|I (MM28:GATE MM28 GATE I 3.6e-19 0.6300 0.0300) // $llx=0.6300 $lly=0.0300 $urx=0.6300 $ury=0.0300 $lvl=11
*|I (MM25:GATE MM25 GATE I 3.6e-19 0.5460 0.0900) // $llx=0.5460 $lly=0.0900 $urx=0.5460 $ury=0.0900 $lvl=12
*|I (MM23:GATE MM23 GATE I 3.6e-19 0.5040 0.0900) // $llx=0.5040 $lly=0.0900 $urx=0.5040 $ury=0.0900 $lvl=12
*|I (MM20:GATE MM20 GATE I 3.6e-19 0.4620 0.0900) // $llx=0.4620 $lly=0.0900 $urx=0.4620 $ury=0.0900 $lvl=12
*|I (MM19:GATE MM19 GATE I 3.6e-19 0.4200 0.0900) // $llx=0.4200 $lly=0.0900 $urx=0.4200 $ury=0.0900 $lvl=12
*|I (MM16:GATE MM16 GATE I 3.6e-19 0.3780 0.0900) // $llx=0.3780 $lly=0.0900 $urx=0.3780 $ury=0.0900 $lvl=12
*|I (MM15:GATE MM15 GATE I 3.6e-19 0.3360 0.0900) // $llx=0.3360 $lly=0.0900 $urx=0.3360 $ury=0.0900 $lvl=12
*|I (MM14:GATE MM14 GATE I 3.6e-19 0.2940 0.0900) // $llx=0.2940 $lly=0.0900 $urx=0.2940 $ury=0.0900 $lvl=12
*|I (MM13:GATE MM13 GATE I 3.6e-19 0.2520 0.0900) // $llx=0.2520 $lly=0.0900 $urx=0.2520 $ury=0.0900 $lvl=12
*|I (MM12:GATE MM12 GATE I 3.6e-19 0.2100 0.0900) // $llx=0.2100 $lly=0.0900 $urx=0.2100 $ury=0.0900 $lvl=12
*|I (MM11:GATE MM11 GATE I 3.6e-19 0.1680 0.0900) // $llx=0.1680 $lly=0.0900 $urx=0.1680 $ury=0.0900 $lvl=12
*|I (MM27:GATE MM27 GATE I 3.6e-19 0.5880 0.0300) // $llx=0.5880 $lly=0.0300 $urx=0.5880 $ury=0.0300 $lvl=11
*|I (MM10:GATE MM10 GATE I 3.6e-19 0.1260 0.0900) // $llx=0.1260 $lly=0.0900 $urx=0.1260 $ury=0.0900 $lvl=12
*|I (MM9:GATE MM9 GATE I 3.6e-19 0.0840 0.0900) // $llx=0.0840 $lly=0.0900 $urx=0.0840 $ury=0.0900 $lvl=12
*|I (MM8:GATE MM8 GATE I 3.6e-19 0.0420 0.0900) // $llx=0.0420 $lly=0.0900 $urx=0.0420 $ury=0.0900 $lvl=12
*|I (MM24:GATE MM24 GATE I 3.6e-19 0.5460 0.0300) // $llx=0.5460 $lly=0.0300 $urx=0.5460 $ury=0.0300 $lvl=11
*|I (MM22:GATE MM22 GATE I 3.6e-19 0.5040 0.0300) // $llx=0.5040 $lly=0.0300 $urx=0.5040 $ury=0.0300 $lvl=11
*|I (MM21:GATE MM21 GATE I 3.6e-19 0.4620 0.0300) // $llx=0.4620 $lly=0.0300 $urx=0.4620 $ury=0.0300 $lvl=11
*|I (MM18:GATE MM18 GATE I 3.6e-19 0.4200 0.0300) // $llx=0.4200 $lly=0.0300 $urx=0.4200 $ury=0.0300 $lvl=11
*|I (MM17:GATE MM17 GATE I 3.6e-19 0.3780 0.0300) // $llx=0.3780 $lly=0.0300 $urx=0.3780 $ury=0.0300 $lvl=11
*|I (MM7:GATE MM7 GATE I 3.6e-19 0.3360 0.0300) // $llx=0.3360 $lly=0.0300 $urx=0.3360 $ury=0.0300 $lvl=11
*|S (A:34 0.0420 0.0150) // $llx=0.0360 $lly=0.0150 $urx=0.0480 $ury=0.0150 $lvl=10
*|S (A:35 0.0420 0.0450) // $llx=0.0360 $lly=0.0450 $urx=0.0480 $ury=0.0450 $lvl=11
*|S (A:36 0.0420 0.0750) // $llx=0.0360 $lly=0.0750 $urx=0.0480 $ury=0.0750 $lvl=10
*|S (A:37 0.0420 0.1050) // $llx=0.0360 $lly=0.1050 $urx=0.0480 $ury=0.1050 $lvl=12
*|S (A:38 0.0420 0.1100) // $llx=0.0360 $lly=0.1100 $urx=0.0480 $ury=0.1100 $lvl=10
*|S (A:39 0.0840 0.0150) // $llx=0.0780 $lly=0.0150 $urx=0.0900 $ury=0.0150 $lvl=10
*|S (A:40 0.0840 0.0450) // $llx=0.0780 $lly=0.0450 $urx=0.0900 $ury=0.0450 $lvl=11
*|S (A:41 0.0840 0.0750) // $llx=0.0780 $lly=0.0750 $urx=0.0900 $ury=0.0750 $lvl=10
*|S (A:42 0.0840 0.1050) // $llx=0.0780 $lly=0.1050 $urx=0.0900 $ury=0.1050 $lvl=12
*|S (A:43 0.0840 0.1100) // $llx=0.0780 $lly=0.1100 $urx=0.0900 $ury=0.1100 $lvl=10
*|S (A:44 0.1260 0.0150) // $llx=0.1200 $lly=0.0150 $urx=0.1320 $ury=0.0150 $lvl=10
*|S (A:45 0.1260 0.0450) // $llx=0.1200 $lly=0.0450 $urx=0.1320 $ury=0.0450 $lvl=11
*|S (A:46 0.1260 0.0750) // $llx=0.1200 $lly=0.0750 $urx=0.1320 $ury=0.0750 $lvl=10
*|S (A:47 0.1260 0.1050) // $llx=0.1200 $lly=0.1050 $urx=0.1320 $ury=0.1050 $lvl=12
*|S (A:48 0.1260 0.1100) // $llx=0.1200 $lly=0.1100 $urx=0.1320 $ury=0.1100 $lvl=10
*|S (A:49 0.1680 0.0150) // $llx=0.1620 $lly=0.0150 $urx=0.1740 $ury=0.0150 $lvl=10
*|S (A:50 0.1680 0.0450) // $llx=0.1620 $lly=0.0450 $urx=0.1740 $ury=0.0450 $lvl=11
*|S (A:51 0.1680 0.0750) // $llx=0.1620 $lly=0.0750 $urx=0.1740 $ury=0.0750 $lvl=10
*|S (A:52 0.1680 0.1050) // $llx=0.1620 $lly=0.1050 $urx=0.1740 $ury=0.1050 $lvl=12
*|S (A:53 0.1680 0.1100) // $llx=0.1620 $lly=0.1100 $urx=0.1740 $ury=0.1100 $lvl=10
*|S (A:54 0.2100 0.0150) // $llx=0.2040 $lly=0.0150 $urx=0.2160 $ury=0.0150 $lvl=10
*|S (A:55 0.2100 0.0450) // $llx=0.2040 $lly=0.0450 $urx=0.2160 $ury=0.0450 $lvl=11
*|S (A:56 0.2100 0.0750) // $llx=0.2040 $lly=0.0750 $urx=0.2160 $ury=0.0750 $lvl=10
*|S (A:57 0.2100 0.1050) // $llx=0.2040 $lly=0.1050 $urx=0.2160 $ury=0.1050 $lvl=12
*|S (A:58 0.2100 0.1100) // $llx=0.2040 $lly=0.1100 $urx=0.2160 $ury=0.1100 $lvl=10
*|S (A:59 0.2520 0.0150) // $llx=0.2460 $lly=0.0150 $urx=0.2580 $ury=0.0150 $lvl=10
*|S (A:60 0.2520 0.0450) // $llx=0.2460 $lly=0.0450 $urx=0.2580 $ury=0.0450 $lvl=11
*|S (A:61 0.2520 0.0750) // $llx=0.2460 $lly=0.0750 $urx=0.2580 $ury=0.0750 $lvl=10
*|S (A:62 0.2520 0.1050) // $llx=0.2460 $lly=0.1050 $urx=0.2580 $ury=0.1050 $lvl=12
*|S (A:63 0.2520 0.1100) // $llx=0.2460 $lly=0.1100 $urx=0.2580 $ury=0.1100 $lvl=10
*|S (A:64 0.2940 0.0150) // $llx=0.2880 $lly=0.0150 $urx=0.3000 $ury=0.0150 $lvl=10
*|S (A:65 0.2940 0.0450) // $llx=0.2880 $lly=0.0450 $urx=0.3000 $ury=0.0450 $lvl=11
*|S (A:66 0.2940 0.0750) // $llx=0.2880 $lly=0.0750 $urx=0.3000 $ury=0.0750 $lvl=10
*|S (A:67 0.2940 0.1050) // $llx=0.2880 $lly=0.1050 $urx=0.3000 $ury=0.1050 $lvl=12
*|S (A:68 0.2940 0.1100) // $llx=0.2880 $lly=0.1100 $urx=0.3000 $ury=0.1100 $lvl=10
*|S (A:69 0.3360 0.0150) // $llx=0.3300 $lly=0.0150 $urx=0.3420 $ury=0.0150 $lvl=10
*|S (A:70 0.3360 0.0450) // $llx=0.3300 $lly=0.0450 $urx=0.3420 $ury=0.0450 $lvl=11
*|S (A:71 0.3360 0.0750) // $llx=0.3300 $lly=0.0750 $urx=0.3420 $ury=0.0750 $lvl=10
*|S (A:72 0.3360 0.1050) // $llx=0.3300 $lly=0.1050 $urx=0.3420 $ury=0.1050 $lvl=12
*|S (A:73 0.3360 0.1100) // $llx=0.3300 $lly=0.1100 $urx=0.3420 $ury=0.1100 $lvl=10
*|S (A:74 0.3780 0.0150) // $llx=0.3720 $lly=0.0150 $urx=0.3840 $ury=0.0150 $lvl=10
*|S (A:75 0.3780 0.0450) // $llx=0.3720 $lly=0.0450 $urx=0.3840 $ury=0.0450 $lvl=11
*|S (A:76 0.3780 0.0750) // $llx=0.3720 $lly=0.0750 $urx=0.3840 $ury=0.0750 $lvl=10
*|S (A:77 0.3780 0.1050) // $llx=0.3720 $lly=0.1050 $urx=0.3840 $ury=0.1050 $lvl=12
*|S (A:78 0.3780 0.1100) // $llx=0.3720 $lly=0.1100 $urx=0.3840 $ury=0.1100 $lvl=10
*|S (A:79 0.4200 0.0150) // $llx=0.4140 $lly=0.0150 $urx=0.4260 $ury=0.0150 $lvl=10
*|S (A:80 0.4200 0.0450) // $llx=0.4140 $lly=0.0450 $urx=0.4260 $ury=0.0450 $lvl=11
*|S (A:81 0.4200 0.0750) // $llx=0.4140 $lly=0.0750 $urx=0.4260 $ury=0.0750 $lvl=10
*|S (A:82 0.4200 0.1050) // $llx=0.4140 $lly=0.1050 $urx=0.4260 $ury=0.1050 $lvl=12
*|S (A:83 0.4200 0.1100) // $llx=0.4140 $lly=0.1100 $urx=0.4260 $ury=0.1100 $lvl=10
*|S (A:84 0.4620 0.0150) // $llx=0.4560 $lly=0.0150 $urx=0.4680 $ury=0.0150 $lvl=10
*|S (A:85 0.4620 0.0450) // $llx=0.4560 $lly=0.0450 $urx=0.4680 $ury=0.0450 $lvl=11
*|S (A:86 0.4620 0.0750) // $llx=0.4560 $lly=0.0750 $urx=0.4680 $ury=0.0750 $lvl=10
*|S (A:87 0.4620 0.1050) // $llx=0.4560 $lly=0.1050 $urx=0.4680 $ury=0.1050 $lvl=12
*|S (A:88 0.4620 0.1100) // $llx=0.4560 $lly=0.1100 $urx=0.4680 $ury=0.1100 $lvl=10
*|S (A:89 0.5040 0.0150) // $llx=0.4980 $lly=0.0150 $urx=0.5100 $ury=0.0150 $lvl=10
*|S (A:90 0.5040 0.0450) // $llx=0.4980 $lly=0.0450 $urx=0.5100 $ury=0.0450 $lvl=11
*|S (A:91 0.5040 0.0750) // $llx=0.4980 $lly=0.0750 $urx=0.5100 $ury=0.0750 $lvl=10
*|S (A:92 0.5040 0.1050) // $llx=0.4980 $lly=0.1050 $urx=0.5100 $ury=0.1050 $lvl=12
*|S (A:93 0.5040 0.1100) // $llx=0.4980 $lly=0.1100 $urx=0.5100 $ury=0.1100 $lvl=10
*|S (A:94 0.5460 0.0150) // $llx=0.5400 $lly=0.0150 $urx=0.5520 $ury=0.0150 $lvl=10
*|S (A:95 0.5460 0.0450) // $llx=0.5400 $lly=0.0450 $urx=0.5520 $ury=0.0450 $lvl=11
*|S (A:96 0.5460 0.0750) // $llx=0.5400 $lly=0.0750 $urx=0.5520 $ury=0.0750 $lvl=10
*|S (A:97 0.5460 0.1050) // $llx=0.5400 $lly=0.1050 $urx=0.5520 $ury=0.1050 $lvl=12
*|S (A:98 0.5460 0.1100) // $llx=0.5400 $lly=0.1100 $urx=0.5520 $ury=0.1100 $lvl=10
*|S (A:99 0.5880 0.0150) // $llx=0.5820 $lly=0.0150 $urx=0.5940 $ury=0.0150 $lvl=10
*|S (A:100 0.5880 0.0450) // $llx=0.5820 $lly=0.0450 $urx=0.5940 $ury=0.0450 $lvl=11
*|S (A:101 0.5880 0.0750) // $llx=0.5820 $lly=0.0750 $urx=0.5940 $ury=0.0750 $lvl=10
*|S (A:102 0.5880 0.1050) // $llx=0.5820 $lly=0.1050 $urx=0.5940 $ury=0.1050 $lvl=12
*|S (A:103 0.5880 0.1100) // $llx=0.5820 $lly=0.1100 $urx=0.5940 $ury=0.1100 $lvl=10
*|S (A:104 0.6300 0.0150) // $llx=0.6240 $lly=0.0150 $urx=0.6360 $ury=0.0150 $lvl=10
*|S (A:105 0.6300 0.0450) // $llx=0.6240 $lly=0.0450 $urx=0.6360 $ury=0.0450 $lvl=11
*|S (A:106 0.6300 0.0750) // $llx=0.6240 $lly=0.0750 $urx=0.6360 $ury=0.0750 $lvl=10
*|S (A:107 0.6300 0.1050) // $llx=0.6240 $lly=0.1050 $urx=0.6360 $ury=0.1050 $lvl=12
*|S (A:108 0.6300 0.1100) // $llx=0.6240 $lly=0.1100 $urx=0.6360 $ury=0.1100 $lvl=10
*|S (A:109 0.6720 0.0150) // $llx=0.6660 $lly=0.0150 $urx=0.6780 $ury=0.0150 $lvl=10
*|S (A:110 0.6720 0.0450) // $llx=0.6660 $lly=0.0450 $urx=0.6780 $ury=0.0450 $lvl=11
*|S (A:111 0.6720 0.0750) // $llx=0.6660 $lly=0.0750 $urx=0.6780 $ury=0.0750 $lvl=10
*|S (A:112 0.6720 0.1050) // $llx=0.6660 $lly=0.1050 $urx=0.6780 $ury=0.1050 $lvl=12
*|S (A:113 0.6720 0.1100) // $llx=0.6660 $lly=0.1100 $urx=0.6780 $ury=0.1100 $lvl=10
*|S (A:114 0.6300 0.0600) // $llx=0.6240 $lly=0.0540 $urx=0.6360 $ury=0.0660 $lvl=10
*|S (A:115 0.0420 0.0600) // $llx=0.0360 $lly=0.0540 $urx=0.0480 $ury=0.0660 $lvl=9
*|S (A:116 0.0420 0.0600) // $llx=0.0360 $lly=0.0540 $urx=0.0480 $ury=0.0660 $lvl=10
*|S (A:117 0.0840 0.0600) // $llx=0.0780 $lly=0.0540 $urx=0.0900 $ury=0.0660 $lvl=9
*|S (A:118 0.0840 0.0600) // $llx=0.0780 $lly=0.0540 $urx=0.0900 $ury=0.0660 $lvl=10
*|S (A:119 0.1260 0.0600) // $llx=0.1200 $lly=0.0540 $urx=0.1320 $ury=0.0660 $lvl=9
*|S (A:120 0.1260 0.0600) // $llx=0.1200 $lly=0.0540 $urx=0.1320 $ury=0.0660 $lvl=10
*|S (A:121 0.1680 0.0600) // $llx=0.1620 $lly=0.0540 $urx=0.1740 $ury=0.0660 $lvl=9
*|S (A:122 0.1680 0.0600) // $llx=0.1620 $lly=0.0540 $urx=0.1740 $ury=0.0660 $lvl=10
*|S (A:123 0.2100 0.0600) // $llx=0.2040 $lly=0.0540 $urx=0.2160 $ury=0.0660 $lvl=9
*|S (A:124 0.2100 0.0600) // $llx=0.2040 $lly=0.0540 $urx=0.2160 $ury=0.0660 $lvl=10
*|S (A:125 0.2520 0.0600) // $llx=0.2460 $lly=0.0540 $urx=0.2580 $ury=0.0660 $lvl=9
*|S (A:126 0.2520 0.0600) // $llx=0.2460 $lly=0.0540 $urx=0.2580 $ury=0.0660 $lvl=10
*|S (A:127 0.2940 0.0600) // $llx=0.2880 $lly=0.0540 $urx=0.3000 $ury=0.0660 $lvl=9
*|S (A:128 0.2940 0.0600) // $llx=0.2880 $lly=0.0540 $urx=0.3000 $ury=0.0660 $lvl=10
*|S (A:129 0.3360 0.0600) // $llx=0.3300 $lly=0.0540 $urx=0.3420 $ury=0.0660 $lvl=9
*|S (A:130 0.3360 0.0600) // $llx=0.3300 $lly=0.0540 $urx=0.3420 $ury=0.0660 $lvl=10
*|S (A:131 0.3780 0.0600) // $llx=0.3720 $lly=0.0540 $urx=0.3840 $ury=0.0660 $lvl=9
*|S (A:132 0.3780 0.0600) // $llx=0.3720 $lly=0.0540 $urx=0.3840 $ury=0.0660 $lvl=10
*|S (A:133 0.4200 0.0600) // $llx=0.4140 $lly=0.0540 $urx=0.4260 $ury=0.0660 $lvl=9
*|S (A:134 0.4200 0.0600) // $llx=0.4140 $lly=0.0540 $urx=0.4260 $ury=0.0660 $lvl=10
*|S (A:135 0.4620 0.0600) // $llx=0.4560 $lly=0.0540 $urx=0.4680 $ury=0.0660 $lvl=9
*|S (A:136 0.4620 0.0600) // $llx=0.4560 $lly=0.0540 $urx=0.4680 $ury=0.0660 $lvl=10
*|S (A:137 0.5040 0.0600) // $llx=0.4980 $lly=0.0540 $urx=0.5100 $ury=0.0660 $lvl=9
*|S (A:138 0.5040 0.0600) // $llx=0.4980 $lly=0.0540 $urx=0.5100 $ury=0.0660 $lvl=10
*|S (A:139 0.5460 0.0600) // $llx=0.5400 $lly=0.0540 $urx=0.5520 $ury=0.0660 $lvl=9
*|S (A:140 0.5460 0.0600) // $llx=0.5400 $lly=0.0540 $urx=0.5520 $ury=0.0660 $lvl=10
*|S (A:141 0.5880 0.0600) // $llx=0.5820 $lly=0.0540 $urx=0.5940 $ury=0.0660 $lvl=9
*|S (A:142 0.5880 0.0600) // $llx=0.5820 $lly=0.0540 $urx=0.5940 $ury=0.0660 $lvl=10
*|S (A:143 0.6510 0.0600) // $llx=0.6450 $lly=0.0540 $urx=0.6570 $ury=0.0660 $lvl=9
*|S (A:144 0.6510 0.0600) // $llx=0.6450 $lly=0.0540 $urx=0.6570 $ury=0.0660 $lvl=14
*|S (A:145 0.0210 0.0180) // $llx=0.0150 $lly=0.0180 $urx=0.0270 $ury=0.0180 $lvl=9
*|S (A:146 0.6570 0.0600) // $llx=0.6570 $lly=0.0540 $urx=0.6570 $ury=0.0660 $lvl=9
*|S (A:147 0.0210 0.1020) // $llx=0.0150 $lly=0.1020 $urx=0.0270 $ury=0.1020 $lvl=9
*|S (A:148 0.0420 0.0100) // $llx=0.0360 $lly=0.0100 $urx=0.0480 $ury=0.0100 $lvl=10
*|S (A:149 0.0840 0.0100) // $llx=0.0780 $lly=0.0100 $urx=0.0900 $ury=0.0100 $lvl=10
*|S (A:150 0.1260 0.0100) // $llx=0.1200 $lly=0.0100 $urx=0.1320 $ury=0.0100 $lvl=10
*|S (A:151 0.1680 0.0100) // $llx=0.1620 $lly=0.0100 $urx=0.1740 $ury=0.0100 $lvl=10
*|S (A:152 0.2100 0.0100) // $llx=0.2040 $lly=0.0100 $urx=0.2160 $ury=0.0100 $lvl=10
*|S (A:153 0.2520 0.0100) // $llx=0.2460 $lly=0.0100 $urx=0.2580 $ury=0.0100 $lvl=10
*|S (A:154 0.2940 0.0100) // $llx=0.2880 $lly=0.0100 $urx=0.3000 $ury=0.0100 $lvl=10
*|S (A:155 0.3360 0.0100) // $llx=0.3300 $lly=0.0100 $urx=0.3420 $ury=0.0100 $lvl=10
*|S (A:156 0.3780 0.0100) // $llx=0.3720 $lly=0.0100 $urx=0.3840 $ury=0.0100 $lvl=10
*|S (A:157 0.4200 0.0100) // $llx=0.4140 $lly=0.0100 $urx=0.4260 $ury=0.0100 $lvl=10
*|S (A:158 0.4620 0.0100) // $llx=0.4560 $lly=0.0100 $urx=0.4680 $ury=0.0100 $lvl=10
*|S (A:159 0.5040 0.0100) // $llx=0.4980 $lly=0.0100 $urx=0.5100 $ury=0.0100 $lvl=10
*|S (A:160 0.5460 0.0100) // $llx=0.5400 $lly=0.0100 $urx=0.5520 $ury=0.0100 $lvl=10
*|S (A:161 0.5880 0.0100) // $llx=0.5820 $lly=0.0100 $urx=0.5940 $ury=0.0100 $lvl=10
*|S (A:162 0.6300 0.0100) // $llx=0.6240 $lly=0.0100 $urx=0.6360 $ury=0.0100 $lvl=10
*|S (A:163 0.6720 0.0100) // $llx=0.6660 $lly=0.0100 $urx=0.6780 $ury=0.0100 $lvl=10
*|S (A:164 0.6720 0.0600) // $llx=0.6660 $lly=0.0540 $urx=0.6780 $ury=0.0660 $lvl=10
Cg1_1 A 0 4.63522e-18
Cg1_2 A:34 0 6.02191e-20
Cg1_3 A:35 0 2.43715e-19
Cg1_4 A:36 0 2.6987e-19
Cg1_5 A:37 0 3.75304e-19
Cg1_6 A:38 0 1.72208e-19
Cg1_7 A:39 0 6.11935e-20
Cg1_8 A:40 0 2.43715e-19
Cg1_9 A:41 0 2.70364e-19
Cg1_10 A:42 0 3.68393e-19
Cg1_11 A:43 0 1.74064e-19
Cg1_12 A:44 0 6.11935e-20
Cg1_13 A:45 0 2.43715e-19
Cg1_14 A:46 0 2.70364e-19
Cg1_15 A:47 0 3.68393e-19
Cg1_16 A:48 0 1.74064e-19
Cg1_17 A:49 0 6.11935e-20
Cg1_18 A:50 0 2.43715e-19
Cg1_19 A:51 0 2.70364e-19
Cg1_20 A:52 0 3.68393e-19
Cg1_21 A:53 0 1.74064e-19
Cg1_22 A:54 0 6.11935e-20
Cg1_23 A:55 0 2.43715e-19
Cg1_24 A:56 0 2.70364e-19
Cg1_25 A:57 0 3.68393e-19
Cg1_26 A:58 0 1.74064e-19
Cg1_27 A:59 0 6.11935e-20
Cg1_28 A:60 0 2.43715e-19
Cg1_29 A:61 0 2.70364e-19
Cg1_30 A:62 0 3.68393e-19
Cg1_31 A:63 0 1.74064e-19
Cg1_32 A:64 0 6.11935e-20
Cg1_33 A:65 0 2.43715e-19
Cg1_34 A:66 0 2.70364e-19
Cg1_35 A:67 0 3.68393e-19
Cg1_36 A:68 0 1.74064e-19
Cg1_37 A:69 0 6.11935e-20
Cg1_38 A:70 0 2.43715e-19
Cg1_39 A:71 0 2.70364e-19
Cg1_40 A:72 0 3.68393e-19
Cg1_41 A:73 0 1.74064e-19
Cg1_42 A:74 0 6.11935e-20
Cg1_43 A:75 0 2.43715e-19
Cg1_44 A:76 0 2.70364e-19
Cg1_45 A:77 0 3.68393e-19
Cg1_46 A:78 0 1.74064e-19
Cg1_47 A:79 0 6.11935e-20
Cg1_48 A:80 0 2.43715e-19
Cg1_49 A:81 0 2.70364e-19
Cg1_50 A:82 0 3.68393e-19
Cg1_51 A:83 0 1.74064e-19
Cg1_52 A:84 0 6.11935e-20
Cg1_53 A:85 0 2.43715e-19
Cg1_54 A:86 0 2.70364e-19
Cg1_55 A:87 0 3.68393e-19
Cg1_56 A:88 0 1.74064e-19
Cg1_57 A:89 0 6.11935e-20
Cg1_58 A:90 0 2.43715e-19
Cg1_59 A:91 0 2.70364e-19
Cg1_60 A:92 0 3.68393e-19
Cg1_61 A:93 0 1.74064e-19
Cg1_62 A:94 0 6.11935e-20
Cg1_63 A:95 0 2.43715e-19
Cg1_64 A:96 0 2.70364e-19
Cg1_65 A:97 0 3.68393e-19
Cg1_66 A:98 0 1.74064e-19
Cg1_67 A:99 0 6.11935e-20
Cg1_68 A:100 0 2.43715e-19
Cg1_69 A:101 0 2.70364e-19
Cg1_70 A:102 0 3.68393e-19
Cg1_71 A:103 0 1.74064e-19
Cg1_72 A:104 0 4.06191e-20
Cg1_73 A:105 0 2.43715e-19
Cg1_74 A:106 0 2.70364e-19
Cg1_75 A:107 0 3.68393e-19
Cg1_76 A:108 0 1.74064e-19
Cg1_77 A:109 0 3.64468e-19
Cg1_78 A:110 0 2.43715e-19
Cg1_79 A:111 0 1.76504e-18
Cg1_80 A:112 0 2.43715e-19
Cg1_81 A:113 0 4.27645e-19
Cg1_82 A:114 0 5.52035e-19
Cg1_83 A:116 0 7.35588e-20
Cg1_84 A:118 0 7.35727e-20
Cg1_85 A:120 0 7.35727e-20
Cg1_86 A:122 0 7.35727e-20
Cg1_87 A:124 0 7.35727e-20
Cg1_88 A:126 0 7.35727e-20
Cg1_89 A:128 0 7.35727e-20
Cg1_90 A:130 0 7.35727e-20
Cg1_91 A:132 0 7.35727e-20
Cg1_92 A:134 0 7.35727e-20
Cg1_93 A:136 0 7.35727e-20
Cg1_94 A:138 0 7.35727e-20
Cg1_95 A:140 0 7.35727e-20
Cg1_96 A:142 0 7.35727e-20
Cg1_97 A:145 0 1.76928e-18
Cg1_98 A:146 0 4.63522e-18
Cg1_99 A:147 0 1.9395e-18
R1_1 A A:115 7.29167 $l=0.0210 $w=0.0120 $lvl=9
R1_2 A A:145 13.5417 $l=0.0420 $w=0.0120 $lvl=9
R1_3 A A:147 14.5833 $l=0.0420 $w=0.0120 $lvl=9
R1_4 MM31:GATE A:110 6.57895 $l=0.0150 $w=0.0120 $lvl=11
R1_5 MM31:GATE A:109 6.57895 $l=0.0150 $w=0.0120 $lvl=11
R1_6 MM6:GATE A:65 6.57895 $l=0.0150 $w=0.0120 $lvl=11
R1_7 MM6:GATE A:64 6.57895 $l=0.0150 $w=0.0120 $lvl=11
R1_8 MM5:GATE A:60 6.57895 $l=0.0150 $w=0.0120 $lvl=11
R1_9 MM5:GATE A:59 6.57895 $l=0.0150 $w=0.0120 $lvl=11
R1_10 MM4:GATE A:55 6.57895 $l=0.0150 $w=0.0120 $lvl=11
R1_11 MM4:GATE A:54 6.57895 $l=0.0150 $w=0.0120 $lvl=11
R1_12 MM3:GATE A:50 6.57895 $l=0.0150 $w=0.0120 $lvl=11
R1_13 MM3:GATE A:49 6.57895 $l=0.0150 $w=0.0120 $lvl=11
R1_14 MM2:GATE A:45 6.57895 $l=0.0150 $w=0.0120 $lvl=11
R1_15 MM2:GATE A:44 6.57895 $l=0.0150 $w=0.0120 $lvl=11
R1_16 MM1:GATE A:40 6.57895 $l=0.0150 $w=0.0120 $lvl=11
R1_17 MM1:GATE A:39 6.57895 $l=0.0150 $w=0.0120 $lvl=11
R1_18 MM0:GATE A:35 6.57895 $l=0.0150 $w=0.0120 $lvl=11
R1_19 MM0:GATE A:34 6.57895 $l=0.0150 $w=0.0120 $lvl=11
R1_20 MM30:GATE A:112 6.57895 $l=0.0150 $w=0.0120 $lvl=12
R1_21 MM30:GATE A:111 6.57895 $l=0.0150 $w=0.0120 $lvl=12
R1_22 MM29:GATE A:107 6.57895 $l=0.0150 $w=0.0120 $lvl=12
R1_23 MM29:GATE A:106 6.57895 $l=0.0150 $w=0.0120 $lvl=12
R1_24 MM26:GATE A:102 6.57895 $l=0.0150 $w=0.0120 $lvl=12
R1_25 MM26:GATE A:101 6.57895 $l=0.0150 $w=0.0120 $lvl=12
R1_26 MM28:GATE A:105 6.57895 $l=0.0150 $w=0.0120 $lvl=11
R1_27 MM28:GATE A:104 6.57895 $l=0.0150 $w=0.0120 $lvl=11
R1_28 MM25:GATE A:97 6.57895 $l=0.0150 $w=0.0120 $lvl=12
R1_29 MM25:GATE A:96 6.57895 $l=0.0150 $w=0.0120 $lvl=12
R1_30 MM23:GATE A:92 6.57895 $l=0.0150 $w=0.0120 $lvl=12
R1_31 MM23:GATE A:91 6.57895 $l=0.0150 $w=0.0120 $lvl=12
R1_32 MM20:GATE A:87 6.57895 $l=0.0150 $w=0.0120 $lvl=12
R1_33 MM20:GATE A:86 6.57895 $l=0.0150 $w=0.0120 $lvl=12
R1_34 MM19:GATE A:82 6.57895 $l=0.0150 $w=0.0120 $lvl=12
R1_35 MM19:GATE A:81 6.57895 $l=0.0150 $w=0.0120 $lvl=12
R1_36 MM16:GATE A:77 6.57895 $l=0.0150 $w=0.0120 $lvl=12
R1_37 MM16:GATE A:76 6.57895 $l=0.0150 $w=0.0120 $lvl=12
R1_38 MM15:GATE A:72 6.57895 $l=0.0150 $w=0.0120 $lvl=12
R1_39 MM15:GATE A:71 6.57895 $l=0.0150 $w=0.0120 $lvl=12
R1_40 MM14:GATE A:67 6.57895 $l=0.0150 $w=0.0120 $lvl=12
R1_41 MM14:GATE A:66 6.57895 $l=0.0150 $w=0.0120 $lvl=12
R1_42 MM13:GATE A:62 6.57895 $l=0.0150 $w=0.0120 $lvl=12
R1_43 MM13:GATE A:61 6.57895 $l=0.0150 $w=0.0120 $lvl=12
R1_44 MM12:GATE A:57 6.57895 $l=0.0150 $w=0.0120 $lvl=12
R1_45 MM12:GATE A:56 6.57895 $l=0.0150 $w=0.0120 $lvl=12
R1_46 MM11:GATE A:52 6.57895 $l=0.0150 $w=0.0120 $lvl=12
R1_47 MM11:GATE A:51 6.57895 $l=0.0150 $w=0.0120 $lvl=12
R1_48 MM27:GATE A:100 6.57895 $l=0.0150 $w=0.0120 $lvl=11
R1_49 MM27:GATE A:99 6.57895 $l=0.0150 $w=0.0120 $lvl=11
R1_50 MM10:GATE A:47 6.57895 $l=0.0150 $w=0.0120 $lvl=12
R1_51 MM10:GATE A:46 6.57895 $l=0.0150 $w=0.0120 $lvl=12
R1_52 MM9:GATE A:42 6.57895 $l=0.0150 $w=0.0120 $lvl=12
R1_53 MM9:GATE A:41 6.57895 $l=0.0150 $w=0.0120 $lvl=12
R1_54 MM8:GATE A:37 6.57895 $l=0.0150 $w=0.0120 $lvl=12
R1_55 MM8:GATE A:36 6.57895 $l=0.0150 $w=0.0120 $lvl=12
R1_56 MM24:GATE A:95 6.57895 $l=0.0150 $w=0.0120 $lvl=11
R1_57 MM24:GATE A:94 6.57895 $l=0.0150 $w=0.0120 $lvl=11
R1_58 MM22:GATE A:90 6.57895 $l=0.0150 $w=0.0120 $lvl=11
R1_59 MM22:GATE A:89 6.57895 $l=0.0150 $w=0.0120 $lvl=11
R1_60 MM21:GATE A:85 6.57895 $l=0.0150 $w=0.0120 $lvl=11
R1_61 MM21:GATE A:84 6.57895 $l=0.0150 $w=0.0120 $lvl=11
R1_62 MM18:GATE A:80 6.57895 $l=0.0150 $w=0.0120 $lvl=11
R1_63 MM18:GATE A:79 6.57895 $l=0.0150 $w=0.0120 $lvl=11
R1_64 MM17:GATE A:75 6.57895 $l=0.0150 $w=0.0120 $lvl=11
R1_65 MM17:GATE A:74 6.57895 $l=0.0150 $w=0.0120 $lvl=11
R1_66 MM7:GATE A:70 6.57895 $l=0.0150 $w=0.0120 $lvl=11
R1_67 MM7:GATE A:69 6.57895 $l=0.0150 $w=0.0120 $lvl=11
R1_68 A:34 A:148 2.19298 $l=0.0050 $w=0.0120 $lvl=10
R1_69 A:35 A:116 6.57895 $l=0.0150 $w=0.0120 $lvl=10
R1_70 A:36 A:116 6.57895 $l=0.0150 $w=0.0120 $lvl=10
R1_71 A:37 A:38 2.19298 $l=0.0050 $w=0.0120 $lvl=10
R1_72 A:39 A:149 2.19298 $l=0.0050 $w=0.0120 $lvl=10
R1_73 A:40 A:118 6.57895 $l=0.0150 $w=0.0120 $lvl=10
R1_74 A:41 A:118 6.57895 $l=0.0150 $w=0.0120 $lvl=10
R1_75 A:42 A:43 2.19298 $l=0.0050 $w=0.0120 $lvl=10
R1_76 A:44 A:150 2.19298 $l=0.0050 $w=0.0120 $lvl=10
R1_77 A:45 A:120 6.57895 $l=0.0150 $w=0.0120 $lvl=10
R1_78 A:46 A:120 6.57895 $l=0.0150 $w=0.0120 $lvl=10
R1_79 A:47 A:48 2.19298 $l=0.0050 $w=0.0120 $lvl=10
R1_80 A:49 A:151 2.19298 $l=0.0050 $w=0.0120 $lvl=10
R1_81 A:50 A:122 6.57895 $l=0.0150 $w=0.0120 $lvl=10
R1_82 A:51 A:122 6.57895 $l=0.0150 $w=0.0120 $lvl=10
R1_83 A:52 A:53 2.19298 $l=0.0050 $w=0.0120 $lvl=10
R1_84 A:54 A:152 2.19298 $l=0.0050 $w=0.0120 $lvl=10
R1_85 A:55 A:124 6.57895 $l=0.0150 $w=0.0120 $lvl=10
R1_86 A:56 A:124 6.57895 $l=0.0150 $w=0.0120 $lvl=10
R1_87 A:57 A:58 2.19298 $l=0.0050 $w=0.0120 $lvl=10
R1_88 A:59 A:153 2.19298 $l=0.0050 $w=0.0120 $lvl=10
R1_89 A:60 A:126 6.57895 $l=0.0150 $w=0.0120 $lvl=10
R1_90 A:61 A:126 6.57895 $l=0.0150 $w=0.0120 $lvl=10
R1_91 A:62 A:63 2.19298 $l=0.0050 $w=0.0120 $lvl=10
R1_92 A:64 A:154 2.19298 $l=0.0050 $w=0.0120 $lvl=10
R1_93 A:65 A:128 6.57895 $l=0.0150 $w=0.0120 $lvl=10
R1_94 A:66 A:128 6.57895 $l=0.0150 $w=0.0120 $lvl=10
R1_95 A:67 A:68 2.19298 $l=0.0050 $w=0.0120 $lvl=10
R1_96 A:69 A:155 2.19298 $l=0.0050 $w=0.0120 $lvl=10
R1_97 A:70 A:130 6.57895 $l=0.0150 $w=0.0120 $lvl=10
R1_98 A:71 A:130 6.57895 $l=0.0150 $w=0.0120 $lvl=10
R1_99 A:72 A:73 2.19298 $l=0.0050 $w=0.0120 $lvl=10
R1_100 A:74 A:156 2.19298 $l=0.0050 $w=0.0120 $lvl=10
R1_101 A:75 A:132 6.57895 $l=0.0150 $w=0.0120 $lvl=10
R1_102 A:76 A:132 6.57895 $l=0.0150 $w=0.0120 $lvl=10
R1_103 A:77 A:78 2.19298 $l=0.0050 $w=0.0120 $lvl=10
R1_104 A:79 A:157 2.19298 $l=0.0050 $w=0.0120 $lvl=10
R1_105 A:80 A:134 6.57895 $l=0.0150 $w=0.0120 $lvl=10
R1_106 A:81 A:134 6.57895 $l=0.0150 $w=0.0120 $lvl=10
R1_107 A:82 A:83 2.19298 $l=0.0050 $w=0.0120 $lvl=10
R1_108 A:84 A:158 2.19298 $l=0.0050 $w=0.0120 $lvl=10
R1_109 A:85 A:136 6.57895 $l=0.0150 $w=0.0120 $lvl=10
R1_110 A:86 A:136 6.57895 $l=0.0150 $w=0.0120 $lvl=10
R1_111 A:87 A:88 2.19298 $l=0.0050 $w=0.0120 $lvl=10
R1_112 A:89 A:159 2.19298 $l=0.0050 $w=0.0120 $lvl=10
R1_113 A:90 A:138 6.57895 $l=0.0150 $w=0.0120 $lvl=10
R1_114 A:91 A:138 6.57895 $l=0.0150 $w=0.0120 $lvl=10
R1_115 A:92 A:93 2.19298 $l=0.0050 $w=0.0120 $lvl=10
R1_116 A:94 A:160 2.19298 $l=0.0050 $w=0.0120 $lvl=10
R1_117 A:95 A:140 6.57895 $l=0.0150 $w=0.0120 $lvl=10
R1_118 A:96 A:140 6.57895 $l=0.0150 $w=0.0120 $lvl=10
R1_119 A:97 A:98 2.19298 $l=0.0050 $w=0.0120 $lvl=10
R1_120 A:99 A:161 2.19298 $l=0.0050 $w=0.0120 $lvl=10
R1_121 A:100 A:142 6.57895 $l=0.0150 $w=0.0120 $lvl=10
R1_122 A:101 A:142 6.57895 $l=0.0150 $w=0.0120 $lvl=10
R1_123 A:102 A:103 2.19298 $l=0.0050 $w=0.0120 $lvl=10
R1_124 A:104 A:162 2.19298 $l=0.0050 $w=0.0120 $lvl=10
R1_125 A:105 A:114 6.57895 $l=0.0150 $w=0.0120 $lvl=10
R1_126 A:106 A:114 6.57895 $l=0.0150 $w=0.0120 $lvl=10
R1_127 A:107 A:108 2.19298 $l=0.0050 $w=0.0120 $lvl=10
R1_128 A:109 A:163 2.19298 $l=0.0050 $w=0.0120 $lvl=10
R1_129 A:110 A:164 6.57895 $l=0.0150 $w=0.0120 $lvl=10
R1_130 A:111 A:164 6.57895 $l=0.0150 $w=0.0120 $lvl=10
R1_131 A:112 A:113 2.19298 $l=0.0050 $w=0.0120 $lvl=10
R1_132 A:114 A:144 27.7339 $l=0.0210 $w=0.0120 $lvl=14
R1_133 A:115 A:116 63.5281 $a=0.00014400 $lvl=30
R1_134 A:115 A:117 14.5833 $l=0.0420 $w=0.0120 $lvl=9
R1_135 A:117 A:118 63.5281 $a=0.00014400 $lvl=30
R1_136 A:117 A:119 14.5833 $l=0.0420 $w=0.0120 $lvl=9
R1_137 A:119 A:120 63.5281 $a=0.00014400 $lvl=30
R1_138 A:119 A:121 14.5833 $l=0.0420 $w=0.0120 $lvl=9
R1_139 A:121 A:122 63.5281 $a=0.00014400 $lvl=30
R1_140 A:121 A:123 14.5833 $l=0.0420 $w=0.0120 $lvl=9
R1_141 A:123 A:124 63.5281 $a=0.00014400 $lvl=30
R1_142 A:123 A:125 14.5833 $l=0.0420 $w=0.0120 $lvl=9
R1_143 A:125 A:126 63.5281 $a=0.00014400 $lvl=30
R1_144 A:125 A:127 14.5833 $l=0.0420 $w=0.0120 $lvl=9
R1_145 A:127 A:128 63.5281 $a=0.00014400 $lvl=30
R1_146 A:127 A:129 14.5833 $l=0.0420 $w=0.0120 $lvl=9
R1_147 A:129 A:130 63.5281 $a=0.00014400 $lvl=30
R1_148 A:129 A:131 14.5833 $l=0.0420 $w=0.0120 $lvl=9
R1_149 A:131 A:132 63.5281 $a=0.00014400 $lvl=30
R1_150 A:131 A:133 14.5833 $l=0.0420 $w=0.0120 $lvl=9
R1_151 A:133 A:134 63.5281 $a=0.00014400 $lvl=30
R1_152 A:133 A:135 14.5833 $l=0.0420 $w=0.0120 $lvl=9
R1_153 A:135 A:136 63.5281 $a=0.00014400 $lvl=30
R1_154 A:135 A:137 14.5833 $l=0.0420 $w=0.0120 $lvl=9
R1_155 A:137 A:138 63.5281 $a=0.00014400 $lvl=30
R1_156 A:137 A:139 14.5833 $l=0.0420 $w=0.0120 $lvl=9
R1_157 A:139 A:140 63.5281 $a=0.00014400 $lvl=30
R1_158 A:139 A:141 14.5833 $l=0.0420 $w=0.0120 $lvl=9
R1_159 A:141 A:142 63.5281 $a=0.00014400 $lvl=30
R1_160 A:141 A:143 21.875 $l=0.0630 $w=0.0120 $lvl=9
R1_161 A:143 A:144 63.5281 $a=0.00014400 $lvl=30
R1_162 A:143 A:146 2.08333 $l=0.0060 $w=0.0120 $lvl=9
R1_163 A:144 A:164 27.7339 $l=0.0210 $w=0.0120 $lvl=14

*|NET VSS 0.000188118PF
*|P (VSS B 0 0.3570 0.0000) // $llx=0.3510 $lly=-0.0060 $urx=0.3630 $ury=0.0060 $lvl=33
*|I (MM31:SRC MM31 SRC B 0 0.6780 0.0300) // $llx=0.6780 $lly=0.0300 $urx=0.6780 $ury=0.0300 $lvl=16
*|I (MM6:SRC MM6 SRC B 0 0.2880 0.0300) // $llx=0.2880 $lly=0.0300 $urx=0.2880 $ury=0.0300 $lvl=16
*|I (MM5:SRC MM5 SRC B 0 0.2580 0.0300) // $llx=0.2580 $lly=0.0300 $urx=0.2580 $ury=0.0300 $lvl=16
*|I (MM4:SRC MM4 SRC B 0 0.2040 0.0300) // $llx=0.2040 $lly=0.0300 $urx=0.2040 $ury=0.0300 $lvl=16
*|I (MM3:SRC MM3 SRC B 0 0.1740 0.0300) // $llx=0.1740 $lly=0.0300 $urx=0.1740 $ury=0.0300 $lvl=16
*|I (MM2:SRC MM2 SRC B 0 0.1200 0.0300) // $llx=0.1200 $lly=0.0300 $urx=0.1200 $ury=0.0300 $lvl=16
*|I (MM1:SRC MM1 SRC B 0 0.0900 0.0300) // $llx=0.0900 $lly=0.0300 $urx=0.0900 $ury=0.0300 $lvl=16
*|I (MM0:SRC MM0 SRC B 0 0.0360 0.0300) // $llx=0.0360 $lly=0.0300 $urx=0.0360 $ury=0.0300 $lvl=16
*|I (MM28:BULK MM28 BULK B 0 0.6300 0.0300) // $llx=0.6300 $lly=0.0300 $urx=0.6300 $ury=0.0300 $lvl=20
*|I (MM28:SRC MM28 SRC B 0 0.6240 0.0300) // $llx=0.6240 $lly=0.0300 $urx=0.6240 $ury=0.0300 $lvl=16
*|I (MM27:SRC MM27 SRC B 0 0.5940 0.0300) // $llx=0.5940 $lly=0.0300 $urx=0.5940 $ury=0.0300 $lvl=16
*|I (MM24:SRC MM24 SRC B 0 0.5400 0.0300) // $llx=0.5400 $lly=0.0300 $urx=0.5400 $ury=0.0300 $lvl=16
*|I (MM22:SRC MM22 SRC B 0 0.5100 0.0300) // $llx=0.5100 $lly=0.0300 $urx=0.5100 $ury=0.0300 $lvl=16
*|I (MM21:SRC MM21 SRC B 0 0.4560 0.0300) // $llx=0.4560 $lly=0.0300 $urx=0.4560 $ury=0.0300 $lvl=16
*|I (MM18:SRC MM18 SRC B 0 0.4260 0.0300) // $llx=0.4260 $lly=0.0300 $urx=0.4260 $ury=0.0300 $lvl=16
*|I (MM17:SRC MM17 SRC B 0 0.3720 0.0300) // $llx=0.3720 $lly=0.0300 $urx=0.3720 $ury=0.0300 $lvl=16
*|I (MM7:SRC MM7 SRC B 0 0.3420 0.0300) // $llx=0.3420 $lly=0.0300 $urx=0.3420 $ury=0.0300 $lvl=16
*|I (MM28:BULK MM31 BULK B 0 0.6720 0.0300) // $llx=0.6720 $lly=0.0300 $urx=0.6720 $ury=0.0300 $lvl=20
*|I (MM28:BULK MM6 BULK B 0 0.2940 0.0300) // $llx=0.2940 $lly=0.0300 $urx=0.2940 $ury=0.0300 $lvl=20
*|I (MM28:BULK MM5 BULK B 0 0.2520 0.0300) // $llx=0.2520 $lly=0.0300 $urx=0.2520 $ury=0.0300 $lvl=20
*|I (MM28:BULK MM4 BULK B 0 0.2100 0.0300) // $llx=0.2100 $lly=0.0300 $urx=0.2100 $ury=0.0300 $lvl=20
*|I (MM28:BULK MM3 BULK B 0 0.1680 0.0300) // $llx=0.1680 $lly=0.0300 $urx=0.1680 $ury=0.0300 $lvl=20
*|I (MM28:BULK MM2 BULK B 0 0.1260 0.0300) // $llx=0.1260 $lly=0.0300 $urx=0.1260 $ury=0.0300 $lvl=20
*|I (MM28:BULK MM1 BULK B 0 0.0840 0.0300) // $llx=0.0840 $lly=0.0300 $urx=0.0840 $ury=0.0300 $lvl=20
*|I (MM28:BULK MM0 BULK B 0 0.0420 0.0300) // $llx=0.0420 $lly=0.0300 $urx=0.0420 $ury=0.0300 $lvl=20